# CIF file generated by openbabel 3.0.0, see http://openbabel.sf.net
data_I
_chemical_name_common 'D:\! BYU CALCULATION\Acidic MOF Patent\Periodic_07_06\mof808_cellopt_pbesol-pos-final.pdb'
_cell_length_a 29.46
_cell_length_b 29.646
_cell_length_c 29.266
_cell_angle_alpha 59.94
_cell_angle_beta 60.25
_cell_angle_gamma 58.92
loop_
    _atom_site_label
    _atom_site_type_symbol
    _atom_site_fract_x
    _atom_site_fract_y
    _atom_site_fract_z
    _atom_site_occupancy
    H0      H    0.42916   0.35644   0.58805   1.000
    C1      C    0.90738   0.35437   0.39237   1.000
    C2      C    0.11666   0.15217   0.31093   1.000
    C3      C    0.91302   0.08236   0.37736   1.000
    N4      N    0.93900   0.35495   0.33968   1.000
    N5      N    0.11574   0.17973   0.33656   1.000
    N6      N    0.86016   0.10895   0.58313   1.000
    N7      N    0.86033   0.10671   0.40625   1.000
    C8      C    0.11454   0.07579   0.38724   1.000
    C9      C    0.91582   0.15240   0.59051   1.000
    C10     C    0.91319   0.16039   0.30296   1.000
    C11     C    0.91212   0.35854   0.31143   1.000
    C12     C    0.11442   0.15046   0.38978   1.000
    C13     C    0.91250   0.08102   0.58530   1.000
    N14     N    0.85416   0.35713   0.41687   1.000
    N15     N    0.11617   0.10017   0.33381   1.000
    N16     N    0.86368   0.18526   0.58784   1.000
    N17     N    0.94197   0.10663   0.32555   1.000
    N18     N    0.85883   0.36233   0.33043   1.000
    N19     N    0.11402   0.09828   0.41762   1.000
    N20     N    0.94271   0.09978   0.58942   1.000
    N21     N    0.86034   0.18974   0.32685   1.000
    C22     C    0.23539   0.24565   0.70629   1.000
    C23     C    0.00076   0.47863   0.78098   1.000
    C24     C    0.23153   0.55429   0.70638   1.000
    N25     N    0.20693   0.24728   0.75852   1.000
    N26     N    0.00187   0.44945   0.75693   1.000
    N27     N    0.27791   0.52689   0.47472   1.000
    N28     N    0.28410   0.52888   0.67816   1.000
    C29     C    0.99944   0.55467   0.70400   1.000
    C30     C    0.22672   0.47378   0.47464   1.000
    C31     C    0.23198   0.47906   0.78398   1.000
    C32     C    0.23635   0.24808   0.78131   1.000
    C33     C    0.00182   0.47758   0.70404   1.000
    C34     C    0.22476   0.55055   0.47497   1.000
    N35     N    0.28818   0.24407   0.67737   1.000
    N36     N    0.99876   0.53159   0.75710   1.000
    N37     N    0.27997   0.44538   0.47443   1.000
    N38     N    0.20322   0.53212   0.75956   1.000
    N39     N    0.28915   0.24680   0.75722   1.000
    N40     N    0.00061   0.53028   0.67499   1.000
    N41     N    0.19667   0.52689   0.47447   1.000
    N42     N    0.28451   0.44870   0.76064   1.000
    O43     O    0.63711   0.29619   0.51257   1.000
    O44     O    0.46993   0.34440   0.57367   1.000
    O45     O    0.53950   0.43436   0.63844   1.000
    H46     H    0.52242   0.28714   0.73005   1.000
    O47     O    0.52308   0.31629   0.69366   1.000
    S48     S    0.59937   0.40750   0.61464   1.000
    O49     O    0.63799   0.41702   0.62185   1.000
    H50     H    0.55654   0.32754   0.67687   1.000
    O51     O    0.61358   0.34264   0.63269   1.000
    O52     O    0.49826   0.23521   0.71742   1.000
    H53     H    0.61791   0.23414   0.65169   1.000
    Zr54    Zr   0.50850   0.29111   0.64194   1.000
    H55     H    0.47035   0.21806   0.73434   1.000
    O56     O    0.60207   0.25534   0.62127   1.000
    H57     H    0.71858   0.13000   0.59501   1.000
    O58     O    0.67938   0.13430   0.60205   1.000
    Zr59    Zr   0.62601   0.34052   0.55483   1.000
    O60     O    0.61230   0.42075   0.55029   1.000
    O61     O    0.54240   0.35716   0.58096   1.000
    H62     H    0.68034   0.10288   0.59809   1.000
    O63     O    0.54694   0.24967   0.58276   1.000
    O64     O    0.51265   0.47442   0.53991   1.000
    Zr65    Zr   0.63192   0.21998   0.55404   1.000
    H66     H    0.55305   0.45918   0.53895   1.000
    Zr67    Zr   0.50181   0.41241   0.52382   1.000
    H68     H    0.64614   0.14400   0.51307   1.000
    O69     O    0.62060   0.15420   0.54691   1.000
    H70     H    0.58084   0.17146   0.54258   1.000
    Zr71    Zr   0.50898   0.29341   0.51982   1.000
    O72     O    0.59018   0.40490   0.47881   1.000
    O73     O    0.52801   0.20674   0.52945   1.000
    O74     O    0.45355   0.50150   0.48198   1.000
    H75     H    0.60457   0.43549   0.45651   1.000
    O76     O    0.53814   0.36157   0.47622   1.000
    O77     O    0.60037   0.26412   0.47781   1.000
    H78     H    0.44767   0.52990   0.49427   1.000
    Zr79    Zr   0.62465   0.33880   0.43546   1.000
    O80     O    0.59739   0.42954   0.37103   1.000
    H81     H    0.55720   0.44657   0.37669   1.000
    H82     H    0.41726   0.50709   0.48077   1.000
    O83     O    0.50808   0.28535   0.45268   1.000
    H84     H    0.60876   0.24136   0.45530   1.000
    S85     S    0.53644   0.22106   0.46647   1.000
    O86     O    0.59768   0.20691   0.43696   1.000
    O87     O    0.50922   0.19687   0.46064   1.000
    H88     H    0.61467   0.41022   0.34310   1.000
    O89     O    0.64508   0.33857   0.35927   1.000
    H90     H    0.67590   0.31029   0.34252   1.000
    H91     H    0.49275   0.47316   0.57913   1.000
    C92     C    0.31271   0.24517   0.70488   1.000
    C93     C    0.30289   0.47411   0.47485   1.000
    C94     C    0.30801   0.47610   0.70758   1.000
    C95     C    0.36819   0.24959   0.67341   1.000
    N96     N    0.39234   0.25821   0.61793   1.000
    N97     N    0.39784   0.25266   0.69458   1.000
    N98     N    0.44046   0.26402   0.65123   1.000
    C99     C    0.35913   0.44355   0.48023   1.000
    N100    N    0.38664   0.46465   0.48598   1.000
    N101    N    0.38709   0.38870   0.48639   1.000
    N102    N    0.43202   0.37619   0.49602   1.000
    C103    C    0.36283   0.44425   0.67683   1.000
    N104    N    0.38911   0.46586   0.62210   1.000
    N105    N    0.38935   0.38865   0.69746   1.000
    N106    N    0.43225   0.37577   0.65478   1.000
    N107    N    0.43714   0.26723   0.60480   1.000
    N108    N    0.43208   0.42264   0.60897   1.000
    N109    N    0.43171   0.42180   0.49602   1.000
    C110    C    0.83837   0.16102   0.58430   1.000
    C111    C    0.83206   0.36117   0.38370   1.000
    C112    C    0.83651   0.16039   0.37865   1.000
    C113    C    0.78207   0.19427   0.57925   1.000
    N114    N    0.75276   0.17369   0.57550   1.000
    N115    N    0.75430   0.24870   0.57471   1.000
    N116    N    0.70703   0.21651   0.56771   1.000
    N117    N    0.70764   0.26140   0.56771   1.000
    C118    C    0.77442   0.36245   0.40920   1.000
    N119    N    0.74417   0.36140   0.46251   1.000
    N120    N    0.74639   0.36165   0.38449   1.000
    N121    N    0.69715   0.35964   0.47072   1.000
    N122    N    0.69826   0.35971   0.42350   1.000
    C123    C    0.78007   0.19032   0.40891   1.000
    N124    N    0.75256   0.16762   0.46276   1.000
    N125    N    0.75092   0.24482   0.38741   1.000
    N126    N    0.70606   0.20945   0.47410   1.000
    N127    N    0.70509   0.25593   0.42888   1.000
    H128    H    0.11484   0.35732   0.58801   1.000
    O129    O    0.04455   0.28103   0.52799   1.000
    O130    O    0.10095   0.34256   0.57625   1.000
    O131    O    0.87546   0.40757   0.66549   1.000
    H132    H    0.94836   0.49882   0.51832   1.000
    O133    O    0.95462   0.46269   0.54791   1.000
    S134    S    0.86632   0.38388   0.63890   1.000
    O135    O    0.81045   0.39188   0.64857   1.000
    H136    H    0.92684   0.44592   0.55900   1.000
    O137    O    0.89950   0.40156   0.57409   1.000
    O138    O    0.03742   0.48557   0.46647   1.000
    H139    H    0.98587   0.41995   0.46614   1.000
    Zr140   Zr   0.04693   0.41040   0.52324   1.000
    H141    H    0.06568   0.50246   0.44892   1.000
    O142    O    0.01077   0.38940   0.48760   1.000
    H143    H    0.04783   0.36347   0.36236   1.000
    O144    O    0.07586   0.37037   0.36640   1.000
    Zr145   Zr   0.96809   0.32338   0.57229   1.000
    O146    O    0.90468   0.31937   0.65228   1.000
    O147    O    0.00797   0.34990   0.58926   1.000
    H148    H    0.11064   0.36611   0.33497   1.000
    O149    O    0.11072   0.35114   0.48168   1.000
    O150    O    0.96013   0.31049   0.70567   1.000
    Zr151   Zr   0.08531   0.32226   0.45184   1.000
    H152    H    0.93667   0.30783   0.69125   1.000
    Zr153   Zr   0.05056   0.29307   0.64448   1.000
    H154    H    0.18930   0.28058   0.37653   1.000
    O155    O    0.17064   0.31468   0.38624   1.000
    H156    H    0.19721   0.31036   0.40354   1.000
    Zr157   Zr   0.16786   0.28844   0.52557   1.000
    O158    O    0.01527   0.24791   0.63690   1.000
    O159    O    0.22747   0.29702   0.43925   1.000
    O160    O    0.04999   0.25207   0.73368   1.000
    H161    H    0.99253   0.22548   0.66720   1.000
    O162    O    0.11365   0.24520   0.59359   1.000
    O163    O    0.14872   0.24621   0.49619   1.000
    H164    H    0.01441   0.26540   0.76135   1.000
    Zr165   Zr   0.09185   0.20423   0.57054   1.000
    O166    O    0.09205   0.13993   0.66124   1.000
    H167    H    0.10935   0.14552   0.67824   1.000
    H168    H    0.08185   0.25107   0.73909   1.000
    O169    O    0.24450   0.22047   0.51836   1.000
    H170    H    0.18636   0.22343   0.47364   1.000
    S171    S    0.26768   0.23382   0.45418   1.000
    O172    O    0.25025   0.20448   0.44017   1.000
    O173    O    0.32551   0.22716   0.43038   1.000
    H174    H    0.12249   0.11180   0.64215   1.000
    O175    O    0.14877   0.12805   0.57034   1.000
    H176    H    0.16412   0.11139   0.54187   1.000
    H177    H    0.94111   0.35045   0.70212   1.000
    C178    C    0.20474   0.25023   0.67612   1.000
    N179    N    0.15020   0.25568   0.69700   1.000
    N180    N    0.22644   0.25581   0.62139   1.000
    N181    N    0.18480   0.26487   0.60872   1.000
    C182    C    0.00790   0.44634   0.67395   1.000
    N183    N    0.01473   0.46673   0.61885   1.000
    N184    N    0.01358   0.39195   0.69654   1.000
    N185    N    0.02457   0.37872   0.65444   1.000
    C186    C    0.19796   0.44241   0.47998   1.000
    N187    N    0.14368   0.46356   0.48331   1.000
    N188    N    0.22104   0.38673   0.48914   1.000
    N189    N    0.18017   0.37356   0.49877   1.000
    N190    N    0.13879   0.26499   0.65415   1.000
    N191    N    0.13315   0.42010   0.49544   1.000
    N192    N    0.02523   0.42428   0.60722   1.000
    C193    C    0.11116   0.17915   0.42071   1.000
    N194    N    0.10848   0.23256   0.39858   1.000
    N195    N    0.10736   0.15674   0.47522   1.000
    N196    N    0.10175   0.19716   0.48677   1.000
    C197    C    0.93532   0.34831   0.42596   1.000
    N198    N    0.91264   0.34326   0.48052   1.000
    N199    N    0.98931   0.34435   0.40558   1.000
    N200    N    0.99968   0.33600   0.44851   1.000
    C201    C    0.94584   0.17774   0.59284   1.000
    N202    N    0.92275   0.23096   0.59234   1.000
    N203    N    0.99951   0.15313   0.59247   1.000
    N204    N    0.00958   0.19203   0.59142   1.000
    N205    N    0.10264   0.24269   0.44051   1.000
    N206    N    0.96279   0.23915   0.59138   1.000
    N207    N    0.95359   0.33586   0.49340   1.000
    H208    H    0.11462   0.36552   0.90352   1.000
    O209    O    0.05028   0.29143   0.11091   1.000
    O210    O    0.10227   0.35130   0.94420   1.000
    O211    O    0.18695   0.41252   0.02501   1.000
    H212    H    0.04192   0.50774   0.99546   1.000
    O213    O    0.07022   0.47027   0.99875   1.000
    S214    S    0.15852   0.38881   0.08369   1.000
    O215    O    0.16538   0.39530   0.12500   1.000
    H216    H    0.08037   0.45354   0.03355   1.000
    O217    O    0.09405   0.40849   0.09307   1.000
    O218    O    0.99184   0.49662   0.96562   1.000
    H219    H    0.98729   0.43073   0.08928   1.000
    Zr220   Zr   0.04708   0.42025   0.98046   1.000
    H221    H    0.97634   0.51461   0.93528   1.000
    O222    O    0.00899   0.40037   0.07373   1.000
    H223    H    0.88260   0.37639   0.18443   1.000
    O224    O    0.88774   0.38435   0.14446   1.000
    Zr225   Zr   0.09373   0.33141   0.10349   1.000
    O226    O    0.17303   0.32495   0.09595   1.000
    O227    O    0.11226   0.35806   0.01934   1.000
    H228    H    0.85753   0.38038   0.14300   1.000
    O229    O    0.00624   0.36239   0.01659   1.000
    O230    O    0.22934   0.31520   0.99638   1.000
    Zr231   Zr   0.97467   0.33459   0.10099   1.000
    H232    H    0.21359   0.31316   0.03705   1.000
    Zr233   Zr   0.16923   0.30027   0.98050   1.000
    H234    H    0.90124   0.29497   0.10937   1.000
    O235    O    0.91033   0.32893   0.08494   1.000
    H236    H    0.92872   0.32495   0.04501   1.000
    Zr237   Zr   0.05231   0.29887   0.98008   1.000
    O238    O    0.15960   0.25592   0.06985   1.000
    O239    O    0.96547   0.31144   0.99309   1.000
    O240    O    0.25951   0.25696   0.93657   1.000
    H241    H    0.18961   0.23180   0.08653   1.000
    O242    O    0.11914   0.25404   0.01338   1.000
    O243    O    0.02082   0.25750   0.07056   1.000
    H244    H    0.28625   0.27010   0.93232   1.000
    Zr245   Zr   0.09408   0.21401   0.09999   1.000
    O246    O    0.18609   0.14894   0.07598   1.000
    H247    H    0.20196   0.15162   0.03676   1.000
    H248    H    0.26595   0.25597   0.89977   1.000
    O249    O    0.04522   0.23342   0.97646   1.000
    H250    H    0.99848   0.23606   0.07706   1.000
    S251    S    0.98067   0.24904   0.00104   1.000
    O252    O    0.96517   0.21947   0.06214   1.000
    O253    O    0.95825   0.24450   0.97058   1.000
    H254    H    0.16731   0.12068   0.09649   1.000
    O255    O    0.09617   0.13662   0.12545   1.000
    H256    H    0.07004   0.12054   0.15967   1.000
    H257    H    0.22612   0.35473   0.97779   1.000
    C258    C    0.20541   0.25538   0.83637   1.000
    N259    N    0.22546   0.26098   0.86542   1.000
    N260    N    0.15030   0.26324   0.86155   1.000
    N261    N    0.13653   0.27395   0.90614   1.000
    C262    C    0.20127   0.44982   0.83950   1.000
    N263    N    0.14567   0.47208   0.86459   1.000
    N264    N    0.22327   0.39535   0.86797   1.000
    N265    N    0.18016   0.38409   0.91089   1.000
    C266    C    0.00684   0.44854   0.83671   1.000
    N267    N    0.00945   0.47114   0.86530   1.000
    N268    N    0.01744   0.39306   0.86226   1.000
    N269    N    0.02709   0.38153   0.90681   1.000
    N270    N    0.18162   0.27278   0.90852   1.000
    N271    N    0.02249   0.42875   0.90873   1.000
    N272    N    0.13309   0.43076   0.90873   1.000
    C273    C    0.94335   0.19065   0.24791   1.000
    N274    N    0.92051   0.24487   0.21961   1.000
    N275    N    0.99846   0.16851   0.22127   1.000
    N276    N    0.00976   0.21000   0.17639   1.000
    C277    C    0.94506   0.35581   0.25478   1.000
    N278    N    0.99952   0.35056   0.22973   1.000
    N279    N    0.92527   0.35457   0.22257   1.000
    N280    N    0.96867   0.34744   0.17784   1.000
    C281    C    0.11643   0.18224   0.25312   1.000
    N282    N    0.11429   0.23569   0.22523   1.000
    N283    N    0.11568   0.16055   0.22248   1.000
    N284    N    0.11285   0.20139   0.17514   1.000
    N285    N    0.96286   0.25577   0.17518   1.000
    N286    N    0.11197   0.24697   0.17689   1.000
    N287    N    0.01303   0.34559   0.18180   1.000
    H288    H    0.10974   0.67452   0.58909   1.000
    O289    O    0.04240   0.88184   0.51440   1.000
    O290    O    0.09606   0.71518   0.57484   1.000
    O291    O    0.86612   0.80090   0.63744   1.000
    H292    H    0.94797   0.76803   0.73113   1.000
    O293    O    0.95349   0.77135   0.69391   1.000
    S294    S    0.86083   0.85917   0.61301   1.000
    O295    O    0.80627   0.90171   0.61922   1.000
    H296    H    0.92537   0.80654   0.67712   1.000
    O297    O    0.89739   0.86708   0.63215   1.000
    O298    O    0.03930   0.73704   0.71988   1.000
    H299    H    0.98738   0.86066   0.65357   1.000
    Zr300   Zr   0.04575   0.75197   0.64369   1.000
    H301    H    0.06740   0.70614   0.73751   1.000
    O302    O    0.01149   0.84496   0.62327   1.000
    H303    H    0.05333   0.95328   0.59872   1.000
    O304    O    0.08037   0.91313   0.60630   1.000
    Zr305   Zr   0.96529   0.87586   0.55504   1.000
    O306    O    0.89862   0.87030   0.54920   1.000
    O307    O    0.00360   0.79139   0.58188   1.000
    H308    H    0.11647   0.91129   0.60172   1.000
    O309    O    0.10977   0.78666   0.58476   1.000
    O310    O    0.95070   0.77014   0.54083   1.000
    Zr311   Zr   0.08578   0.87077   0.55700   1.000
    H312    H    0.92818   0.81096   0.53824   1.000
    Zr313   Zr   0.04307   0.75251   0.52441   1.000
    H314    H    0.19184   0.87668   0.51657   1.000
    O315    O    0.17297   0.85252   0.55070   1.000
    H316    H    0.19825   0.81254   0.54662   1.000
    Zr317   Zr   0.16392   0.74941   0.52174   1.000
    O318    O    0.00817   0.84188   0.47968   1.000
    O319    O    0.22642   0.76070   0.53337   1.000
    O320    O    0.03820   0.70938   0.48243   1.000
    H321    H    0.98467   0.85927   0.45643   1.000
    O322    O    0.10756   0.78431   0.47747   1.000
    O323    O    0.14696   0.84005   0.47985   1.000
    H324    H    0.00189   0.70580   0.49652   1.000
    Zr325   Zr   0.08655   0.87085   0.43717   1.000
    O326    O    0.08388   0.84746   0.37236   1.000
    H327    H    0.10317   0.80768   0.37699   1.000
    H328    H    0.06942   0.67206   0.48177   1.000
    O329    O    0.24074   0.74437   0.45597   1.000
    H330    H    0.18469   0.84575   0.45789   1.000
    S331    S    0.26617   0.76787   0.47093   1.000
    O332    O    0.25095   0.82890   0.44101   1.000
    O333    O    0.32390   0.73601   0.46651   1.000
    H334    H    0.11237   0.86563   0.34410   1.000
    O335    O    0.13990   0.89276   0.36073   1.000
    H336    H    0.15205   0.92426   0.34414   1.000
    H337    H    0.93281   0.75220   0.58059   1.000
    C338    C    0.19424   0.60637   0.48068   1.000
    N339    N    0.13934   0.63683   0.48627   1.000
    N340    N    0.21778   0.63082   0.48719   1.000
    N341    N    0.17690   0.67643   0.49698   1.000
    C342    C    0.00392   0.61022   0.67382   1.000
    N343    N    0.01198   0.63536   0.69579   1.000
    N344    N    0.00725   0.63910   0.61964   1.000
    N345    N    0.01795   0.68235   0.60826   1.000
    C346    C    0.20063   0.60931   0.67445   1.000
    N347    N    0.14634   0.63918   0.69566   1.000
    N348    N    0.22100   0.63243   0.61860   1.000
    N349    N    0.17842   0.67676   0.60539   1.000
    N350    N    0.12958   0.68008   0.49665   1.000
    N351    N    0.13307   0.68080   0.65207   1.000
    N352    N    0.02084   0.67992   0.65461   1.000
    C353    C    0.11102   0.01992   0.41566   1.000
    N354    N    0.10992   0.98941   0.46906   1.000
    N355    N    0.10513   0.99434   0.39241   1.000
    N356    N    0.09968   0.94779   0.43234   1.000
    C357    C    0.93977   0.02514   0.58059   1.000
    N358    N    0.91521   0.00134   0.57467   1.000
    N359    N    0.99363   0.99244   0.57825   1.000
    N360    N    0.00197   0.94867   0.56992   1.000
    C361    C    0.94205   0.02448   0.40625   1.000
    N362    N    0.91900   0.99667   0.45993   1.000
    N363    N    0.99541   0.99382   0.38382   1.000
    N364    N    0.00536   0.94642   0.42454   1.000
    N365    N    0.10291   0.94474   0.47831   1.000
    N366    N    0.95888   0.94831   0.47068   1.000
    N367    N    0.95487   0.95368   0.56833   1.000
