# CIF file generated by openbabel 3.0.0, see http://openbabel.sf.net
data_I
_chemical_name_common 'D:\! BYU CALCULATION\Acidic MOF Patent\Periodic_07_10_ClO4\mof808_cellopt_pbesol-pos-final.pdb'
_cell_length_a 29.682
_cell_length_b 29.911
_cell_length_c 29.794
_cell_angle_alpha 59.86
_cell_angle_beta 60.09
_cell_angle_gamma 59.48
loop_
    _atom_site_label
    _atom_site_type_symbol
    _atom_site_fract_x
    _atom_site_fract_y
    _atom_site_fract_z
    _atom_site_occupancy
    H0      H    0.40692   0.89103   0.55633   1.000
    H1      H    0.96023   0.87340   0.29775   1.000
    N2      N    0.08926   0.76958   0.28350   1.000
    N3      N    0.80941   0.61384   0.54918   1.000
    H4      H    0.81460   0.61426   0.42408   1.000
    N5      N    0.78651   0.95257   0.41197   1.000
    N6      N    0.13696   0.59275   0.26634   1.000
    H7      H    0.81894   0.75593   0.56343   1.000
    N8      N    0.96846   0.59947   0.26736   1.000
    N9      N    0.80272   0.93470   0.25656   1.000
    H10     H    0.08300   0.60929   0.43337   1.000
    N11     N    0.97586   0.59884   0.56421   1.000
    N12     N    0.81967   0.77703   0.27944   1.000
    N13     N    0.12151   0.78817   0.75933   1.000
    H14     H    0.98593   0.93231   0.75293   1.000
    N15     N    0.29069   0.09603   0.42688   1.000
    N16     N    0.29132   0.08997   0.59465   1.000
    H17     H    0.28111   0.77877   0.60799   1.000
    N18     N    0.96627   0.08991   0.76562   1.000
    N19     N    0.30805   0.93702   0.40462   1.000
    N20     N    0.13104   0.09974   0.76603   1.000
    N21     N    0.29230   0.78788   0.75289   1.000
    N22     N    0.98579   0.08378   0.59308   1.000
    H23     H    0.13505   0.06515   0.46355   1.000
    H24     H    0.27983   0.93811   0.75194   1.000
    C25     C    0.88422   0.89846   0.36145   1.000
    C26     C    0.10490   0.68361   0.27586   1.000
    C27     C    0.88826   0.60411   0.35373   1.000
    C28     C    0.91490   0.88884   0.31114   1.000
    C29     C    0.09515   0.71048   0.30892   1.000
    C30     C    0.83785   0.63691   0.55703   1.000
    C31     C    0.83584   0.63449   0.38129   1.000
    C32     C    0.09998   0.60078   0.35813   1.000
    C33     C    0.89295   0.68397   0.56520   1.000
    C34     C    0.89333   0.68781   0.27270   1.000
    C35     C    0.88880   0.89944   0.27673   1.000
    C36     C    0.09072   0.68369   0.36482   1.000
    C37     C    0.89189   0.60555   0.55900   1.000
    C38     C    0.82587   0.91634   0.37878   1.000
    C39     C    0.11154   0.62721   0.30108   1.000
    C40     C    0.83890   0.71353   0.56327   1.000
    C41     C    0.91491   0.63103   0.29894   1.000
    C42     C    0.83072   0.91393   0.29644   1.000
    C43     C    0.09067   0.62961   0.38905   1.000
    C44     C    0.91836   0.63039   0.56331   1.000
    C45     C    0.84119   0.71646   0.30276   1.000
    C46     C    0.20629   0.78081   0.67785   1.000
    C47     C    0.97670   0.00388   0.76221   1.000
    C48     C    0.20933   0.09491   0.67896   1.000
    C49     C    0.18066   0.78344   0.73120   1.000
    C50     C    0.98111   0.97608   0.73309   1.000
    C51     C    0.26229   0.06209   0.43554   1.000
    C52     C    0.26284   0.06411   0.65288   1.000
    C53     C    0.97519   0.08725   0.67958   1.000
    C54     C    0.21176   0.00006   0.44207   1.000
    C55     C    0.20881   0.01151   0.76143   1.000
    C56     C    0.20810   0.78452   0.75761   1.000
    C57     C    0.98192   0.00222   0.67843   1.000
    C58     C    0.20460   0.08379   0.44622   1.000
    C59     C    0.26116   0.77944   0.65013   1.000
    C60     C    0.97225   0.05960   0.73506   1.000
    C61     C    0.26959   0.98201   0.42852   1.000
    C62     C    0.18461   0.06776   0.73457   1.000
    C63     C    0.26296   0.78355   0.72775   1.000
    C64     C    0.97996   0.05720   0.65231   1.000
    C65     C    0.18023   0.05093   0.45164   1.000
    C66     C    0.26133   0.98243   0.73256   1.000
    O67     O    0.61367   0.82714   0.48725   1.000
    O68     O    0.44723   0.87906   0.54384   1.000
    O69     O    0.53989   0.95383   0.62426   1.000
    H70     H    0.49016   0.81804   0.70118   1.000
    O71     O    0.49477   0.85018   0.66779   1.000
    Cl72    Cl   0.59262   0.92557   0.59210   1.000
    O73     O    0.63912   0.92710   0.59321   1.000
    H74     H    0.53017   0.85403   0.65719   1.000
    O75     O    0.59779   0.86566   0.60996   1.000
    O76     O    0.47126   0.77182   0.68759   1.000
    H77     H    0.59049   0.76475   0.62590   1.000
    Zr78    Zr   0.48435   0.82525   0.61153   1.000
    H79     H    0.44281   0.75528   0.70479   1.000
    O80     O    0.57621   0.78803   0.59502   1.000
    H81     H    0.68638   0.65649   0.57974   1.000
    O82     O    0.64626   0.66587   0.58791   1.000
    Zr83    Zr   0.60203   0.86738   0.52955   1.000
    O84     O    0.59341   0.94693   0.53341   1.000
    O85     O    0.51962   0.88908   0.55637   1.000
    H86     H    0.64117   0.64171   0.57855   1.000
    O87     O    0.52298   0.78655   0.55230   1.000
    O88     O    0.48093   0.01058   0.51900   1.000
    Zr89    Zr   0.60863   0.74753   0.52898   1.000
    H90     H    0.51137   0.99650   0.53267   1.000
    Zr91    Zr   0.48127   0.94680   0.49439   1.000
    H92     H    0.56990   0.69273   0.51727   1.000
    O93     O    0.59828   0.68655   0.52947   1.000
    Zr94    Zr   0.48807   0.82871   0.49185   1.000
    O95     O    0.56942   0.93516   0.46199   1.000
    O96     O    0.50050   0.74249   0.49748   1.000
    O97     O    0.48862   0.01019   0.42035   1.000
    H98     H    0.58079   0.96728   0.43624   1.000
    O99     O    0.52037   0.89030   0.45291   1.000
    O100    O    0.57787   0.79544   0.45004   1.000
    H101    H    0.45626   0.03123   0.40790   1.000
    Zr102   Zr   0.60516   0.87085   0.40913   1.000
    O103    O    0.57762   0.95997   0.35973   1.000
    H104    H    0.53896   0.98521   0.37837   1.000
    O105    O    0.48105   0.82263   0.42384   1.000
    H106    H    0.59051   0.77344   0.42749   1.000
    Cl107   Cl   0.50214   0.76036   0.43924   1.000
    O108    O    0.55882   0.74201   0.40495   1.000
    O109    O    0.46607   0.74321   0.43817   1.000
    H110    H    0.58211   0.96468   0.32297   1.000
    O111    O    0.62643   0.86860   0.33665   1.000
    H112    H    0.65926   0.84402   0.31751   1.000
    H113    H    0.44616   0.02310   0.54725   1.000
    C114    C    0.29016   0.78123   0.67416   1.000
    C115    C    0.29499   0.00965   0.43082   1.000
    C116    C    0.28961   0.00832   0.67851   1.000
    C117    C    0.34545   0.78510   0.64179   1.000
    N118    N    0.36880   0.79421   0.58697   1.000
    N119    N    0.37725   0.78553   0.66175   1.000
    N120    N    0.41983   0.79605   0.61875   1.000
    C121    C    0.34995   0.98004   0.43731   1.000
    N122    N    0.37703   0.00060   0.44384   1.000
    N123    N    0.37395   0.92468   0.44967   1.000
    N124    N    0.41526   0.91135   0.46450   1.000
    C125    C    0.34252   0.97553   0.64841   1.000
    N126    N    0.37280   0.99576   0.59563   1.000
    N127    N    0.36406   0.91996   0.66804   1.000
    N128    N    0.40694   0.90617   0.62635   1.000
    N129    N    0.41512   0.80106   0.57345   1.000
    N130    N    0.41171   0.95214   0.58228   1.000
    N131    N    0.41658   0.95728   0.46174   1.000
    C132    C    0.81062   0.69060   0.55941   1.000
    C133    C    0.79948   0.91641   0.34979   1.000
    C134    C    0.81115   0.69074   0.35615   1.000
    C135    C    0.75529   0.72339   0.55514   1.000
    N136    N    0.72552   0.70455   0.55054   1.000
    N137    N    0.72822   0.77662   0.55263   1.000
    N138    N    0.68048   0.74674   0.54401   1.000
    N139    N    0.68167   0.79013   0.54553   1.000
    C140    C    0.74336   0.91568   0.37858   1.000
    N141    N    0.72101   0.89771   0.43595   1.000
    N142    N    0.71169   0.91513   0.35882   1.000
    N143    N    0.67596   0.88755   0.44873   1.000
    N144    N    0.67230   0.89761   0.40104   1.000
    C145    C    0.75723   0.72185   0.38663   1.000
    N146    N    0.72857   0.69964   0.43940   1.000
    N147    N    0.73020   0.77638   0.36630   1.000
    N148    N    0.68400   0.74165   0.45098   1.000
    N149    N    0.68497   0.78790   0.40720   1.000
    H150    H    0.09234   0.88518   0.56327   1.000
    O151    O    0.02451   0.81247   0.49932   1.000
    O152    O    0.07740   0.87210   0.55132   1.000
    O153    O    0.83098   0.94753   0.62652   1.000
    H154    H    0.93509   0.02750   0.49123   1.000
    O155    O    0.93284   0.99373   0.52318   1.000
    Cl156   Cl   0.83853   0.91541   0.59871   1.000
    O157    O    0.78880   0.91597   0.60191   1.000
    H158    H    0.90506   0.98201   0.52713   1.000
    O159    O    0.87460   0.93341   0.53867   1.000
    O160    O    0.01519   0.01432   0.44565   1.000
    H161    H    0.96685   0.95090   0.43891   1.000
    Zr162   Zr   0.02528   0.93834   0.49986   1.000
    H163    H    0.04390   0.03067   0.42737   1.000
    O164    O    0.98899   0.92020   0.46216   1.000
    H165    H    0.02554   0.91062   0.33168   1.000
    O166    O    0.05076   0.91673   0.33952   1.000
    Zr167   Zr   0.95181   0.85371   0.53920   1.000
    O168    O    0.87607   0.85642   0.61949   1.000
    O169    O    0.98301   0.88164   0.56294   1.000
    H170    H    0.08898   0.90605   0.31435   1.000
    O171    O    0.08692   0.88025   0.45940   1.000
    O172    O    0.93477   0.84382   0.68069   1.000
    Zr173   Zr   0.06643   0.85475   0.42026   1.000
    H174    H    0.90794   0.85150   0.66512   1.000
    Zr175   Zr   0.02645   0.82023   0.61957   1.000
    H176    H    0.17414   0.83866   0.36227   1.000
    O177    O    0.13773   0.85296   0.35907   1.000
    Zr178   Zr   0.14112   0.82039   0.50129   1.000
    O179    O    0.98570   0.78553   0.60635   1.000
    O180    O    0.21079   0.82552   0.41624   1.000
    O181    O    0.03023   0.74639   0.68307   1.000
    H182    H    0.96755   0.75950   0.63732   1.000
    O183    O    0.08775   0.77925   0.56356   1.000
    O184    O    0.12876   0.77710   0.46836   1.000
    H185    H    0.05145   0.73428   0.70631   1.000
    Zr186   Zr   0.06829   0.73465   0.54372   1.000
    O187    O    0.05435   0.68452   0.63325   1.000
    H188    H    0.04831   0.70367   0.65806   1.000
    O189    O    0.22330   0.75172   0.49645   1.000
    H190    H    0.16187   0.75497   0.44630   1.000
    Cl191   Cl   0.25020   0.76746   0.43435   1.000
    O192    O    0.24776   0.73288   0.41542   1.000
    O193    O    0.30446   0.76651   0.41805   1.000
    H194    H    0.08518   0.64947   0.63584   1.000
    O195    O    0.12624   0.66244   0.54356   1.000
    H196    H    0.14205   0.64412   0.51698   1.000
    H197    H    0.92334   0.87712   0.68812   1.000
    C198    C    0.17659   0.78369   0.64890   1.000
    N199    N    0.12293   0.78758   0.67013   1.000
    N200    N    0.19848   0.78772   0.59538   1.000
    N201    N    0.15749   0.79481   0.58368   1.000
    C202    C    0.98856   0.97094   0.64914   1.000
    N203    N    0.99409   0.99097   0.59534   1.000
    N204    N    0.99341   0.91720   0.67165   1.000
    N205    N    0.00303   0.90428   0.63050   1.000
    C206    C    0.18142   0.96832   0.45066   1.000
    N207    N    0.12686   0.99086   0.45558   1.000
    N208    N    0.20035   0.91325   0.46183   1.000
    N209    N    0.15714   0.90224   0.47398   1.000
    N210    N    0.11169   0.79497   0.62898   1.000
    N211    N    0.11248   0.94899   0.47066   1.000
    N212    N    0.00316   0.94929   0.58430   1.000
    C213    C    0.08478   0.71146   0.39731   1.000
    N214    N    0.08086   0.76462   0.37710   1.000
    N215    N    0.08284   0.68798   0.45049   1.000
    N216    N    0.07680   0.72798   0.46273   1.000
    C217    C    0.91394   0.88768   0.39488   1.000
    N218    N    0.89450   0.87557   0.45008   1.000
    N219    N    0.96747   0.88455   0.37394   1.000
    N220    N    0.98057   0.87024   0.41677   1.000
    C221    C    0.92169   0.71087   0.56610   1.000
    N222    N    0.89933   0.76420   0.56286   1.000
    N223    N    0.97407   0.68763   0.56680   1.000
    N224    N    0.98433   0.72727   0.56339   1.000
    N225    N    0.07597   0.77375   0.41833   1.000
    N226    N    0.93902   0.77353   0.56105   1.000
    N227    N    0.93649   0.86557   0.46236   1.000
    H228    H    0.09305   0.89245   0.87839   1.000
    O229    O    0.02883   0.81956   0.08300   1.000
    O230    O    0.08068   0.87970   0.91844   1.000
    O231    O    0.15149   0.95731   0.01512   1.000
    H232    H    0.01697   0.03579   0.96292   1.000
    O233    O    0.04798   0.00111   0.96961   1.000
    Cl234   Cl   0.12456   0.92419   0.06719   1.000
    O235    O    0.12691   0.92450   0.11356   1.000
    H236    H    0.05119   0.99048   0.00526   1.000
    O237    O    0.06435   0.94126   0.07278   1.000
    O238    O    0.97401   0.02171   0.93815   1.000
    H239    H    0.96428   0.95792   0.06148   1.000
    Zr240   Zr   0.02680   0.94529   0.95524   1.000
    H241    H    0.95768   0.03856   0.90932   1.000
    O242    O    0.98849   0.92749   0.04686   1.000
    H243    H    0.85854   0.91751   0.15003   1.000
    O244    O    0.86821   0.92388   0.11052   1.000
    Zr245   Zr   0.06767   0.86116   0.07475   1.000
    O246    O    0.14746   0.86541   0.06748   1.000
    O247    O    0.09148   0.88933   0.99195   1.000
    H248    H    0.84164   0.91678   0.10645   1.000
    O249    O    0.98919   0.88552   0.99208   1.000
    O250    O    0.21268   0.84813   0.96181   1.000
    Zr251   Zr   0.94913   0.86206   0.07635   1.000
    H252    H    0.19468   0.85878   0.99499   1.000
    Zr253   Zr   0.14983   0.82830   0.95392   1.000
    H254    H    0.89379   0.84899   0.03811   1.000
    O255    O    0.88875   0.86248   0.06477   1.000
    Zr256   Zr   0.03319   0.82539   0.95684   1.000
    O257    O    0.13614   0.79425   0.04316   1.000
    O258    O    0.94756   0.82924   0.96747   1.000
    O259    O    0.21576   0.75585   0.95786   1.000
    H260    H    0.16605   0.76705   0.05848   1.000
    O261    O    0.09652   0.78558   0.98887   1.000
    O262    O    0.00123   0.78215   0.04407   1.000
    H263    H    0.25019   0.75360   0.95680   1.000
    Zr264   Zr   0.07598   0.74165   0.07331   1.000
    O265    O    0.16802   0.69321   0.04719   1.000
    H266    H    0.19213   0.71214   0.00887   1.000
    O267    O    0.03028   0.75752   0.94669   1.000
    H268    H    0.97984   0.75935   0.05585   1.000
    Cl269   Cl   0.96795   0.77165   0.96665   1.000
    O270    O    0.95071   0.73537   0.02193   1.000
    O271    O    0.95183   0.77175   0.92895   1.000
    H272    H    0.17261   0.65701   0.05052   1.000
    O273    O    0.07864   0.66836   0.09056   1.000
    H274    H    0.05448   0.64788   0.12107   1.000
    H275    H    0.22257   0.87955   0.93072   1.000
    C276    C    0.17937   0.79018   0.81199   1.000
    N277    N    0.20073   0.79817   0.83720   1.000
    N278    N    0.12664   0.79165   0.84184   1.000
    N279    N    0.11542   0.80141   0.88525   1.000
    C280    C    0.17876   0.98087   0.81552   1.000
    N281    N    0.12369   0.00024   0.84119   1.000
    N282    N    0.20142   0.92684   0.84238   1.000
    N283    N    0.15896   0.91315   0.88406   1.000
    C284    C    0.98205   0.97318   0.81716   1.000
    N285    N    0.98240   0.99463   0.84763   1.000
    N286    N    0.99452   0.91789   0.84069   1.000
    N287    N    0.00372   0.90570   0.88521   1.000
    N288    N    0.16043   0.80530   0.88242   1.000
    N289    N    0.99672   0.95212   0.88915   1.000
    N290    N    0.11202   0.95782   0.88336   1.000
    C291    C    0.92534   0.71675   0.21894   1.000
    N292    N    0.90421   0.77034   0.19060   1.000
    N293    N    0.98008   0.69517   0.19315   1.000
    N294    N    0.99254   0.73634   0.14925   1.000
    C295    C    0.92222   0.89087   0.22362   1.000
    N296    N    0.97653   0.88498   0.19828   1.000
    N297    N    0.90317   0.88489   0.19471   1.000
    N298    N    0.94639   0.87452   0.15188   1.000
    C299    C    0.10337   0.71375   0.21956   1.000
    N300    N    0.09620   0.76809   0.19327   1.000
    N301    N    0.10273   0.69208   0.18962   1.000
    N302    N    0.09487   0.73344   0.14493   1.000
    N303    N    0.94670   0.78140   0.14785   1.000
    N304    N    0.09083   0.77958   0.14715   1.000
    N305    N    0.99034   0.87496   0.15368   1.000
    H306    H    0.08756   0.20397   0.56278   1.000
    O307    O    0.02199   0.40997   0.48819   1.000
    O308    O    0.07310   0.24413   0.55013   1.000
    O309    O    0.82283   0.34935   0.62795   1.000
    H310    H    0.93487   0.29265   0.70426   1.000
    O311    O    0.93091   0.29882   0.67046   1.000
    Cl312   Cl   0.83411   0.39965   0.59296   1.000
    O313    O    0.78650   0.44833   0.59132   1.000
    H314    H    0.90289   0.33501   0.65962   1.000
    O315    O    0.87326   0.40332   0.60939   1.000
    O316    O    0.01521   0.26877   0.69108   1.000
    H317    H    0.96911   0.38899   0.62594   1.000
    Zr318   Zr   0.02369   0.28274   0.61510   1.000
    H319    H    0.04320   0.24002   0.70870   1.000
    O320    O    0.99011   0.37394   0.59592   1.000
    H321    H    0.03403   0.47450   0.58347   1.000
    O322    O    0.05536   0.43449   0.59046   1.000
    Zr323   Zr   0.94893   0.40211   0.53021   1.000
    O324    O    0.87038   0.39703   0.53530   1.000
    O325    O    0.97901   0.31935   0.55896   1.000
    H326    H    0.09484   0.42741   0.58122   1.000
    O327    O    0.08565   0.31767   0.55386   1.000
    O328    O    0.92855   0.29072   0.51686   1.000
    Zr329   Zr   0.06741   0.40129   0.52963   1.000
    H330    H    0.90231   0.32361   0.52820   1.000
    Zr331   Zr   0.01952   0.28092   0.49867   1.000
    H332    H    0.17513   0.35892   0.51727   1.000
    O333    O    0.14044   0.38662   0.53033   1.000
    Zr334   Zr   0.13751   0.28030   0.49518   1.000
    O335    O    0.97774   0.37060   0.46466   1.000
    O336    O    0.21251   0.28645   0.49468   1.000
    O337    O    0.02365   0.28526   0.42573   1.000
    H338    H    0.96108   0.38721   0.43620   1.000
    O339    O    0.08160   0.31471   0.45526   1.000
    O340    O    0.12672   0.36865   0.45144   1.000
    H341    H    0.99272   0.28436   0.42310   1.000
    Zr342   Zr   0.06287   0.40027   0.41106   1.000
    O343    O    0.04457   0.37421   0.36441   1.000
    H344    H    0.04001   0.33571   0.38334   1.000
    O345    O    0.21598   0.27140   0.42297   1.000
    H346    H    0.16017   0.37895   0.42827   1.000
    Cl347   Cl   0.24794   0.28787   0.43571   1.000
    O348    O    0.24602   0.34374   0.40125   1.000
    O349    O    0.30235   0.24907   0.43242   1.000
    H350    H    0.07144   0.37853   0.32732   1.000
    O351    O    0.11478   0.41997   0.33722   1.000
    H352    H    0.12706   0.45170   0.31706   1.000
    H353    H    0.91748   0.25940   0.54684   1.000
    C354    C    0.17089   0.13647   0.45661   1.000
    N355    N    0.11521   0.16023   0.46811   1.000
    N356    N    0.19180   0.16555   0.45961   1.000
    N357    N    0.14878   0.20686   0.47386   1.000
    C358    C    0.97917   0.14238   0.65013   1.000
    N359    N    0.98902   0.16738   0.66997   1.000
    N360    N    0.98045   0.17183   0.59740   1.000
    N361    N    0.99275   0.21419   0.58471   1.000
    C362    C    0.17861   0.14894   0.64734   1.000
    N363    N    0.12474   0.17819   0.66771   1.000
    N364    N    0.19803   0.17112   0.59198   1.000
    N365    N    0.15544   0.21310   0.57855   1.000
    N366    N    0.10213   0.20378   0.47899   1.000
    N367    N    0.11100   0.21725   0.62434   1.000
    N368    N    0.99747   0.21167   0.62894   1.000
    C369    C    0.09451   0.54620   0.38630   1.000
    N370    N    0.09056   0.51752   0.43973   1.000
    N371    N    0.08699   0.52073   0.36482   1.000
    N372    N    0.07737   0.47656   0.40585   1.000
    C373    C    0.92004   0.55098   0.55390   1.000
    N374    N    0.89683   0.52503   0.54967   1.000
    N375    N    0.97373   0.52083   0.55029   1.000
    N376    N    0.98333   0.47674   0.54273   1.000
    C377    C    0.91579   0.54758   0.38379   1.000
    N378    N    0.89449   0.52254   0.43842   1.000
    N379    N    0.96778   0.51605   0.36223   1.000
    N380    N    0.97894   0.47182   0.40400   1.000
    N381    N    0.07990   0.47465   0.45061   1.000
    N382    N    0.93449   0.47559   0.45012   1.000
    N383    N    0.93713   0.47902   0.54277   1.000
    O384    O    0.80679   0.97945   0.22079   1.000
    O385    O    0.77895   0.90890   0.26050   1.000
    O386    O    0.73710   0.88969   0.47205   1.000
    O387    O    0.80489   0.96251   0.43320   1.000
    O388    O    0.10788   0.58478   0.25525   1.000
    O389    O    0.18816   0.57391   0.25258   1.000
    O390    O    0.13199   0.78024   0.26018   1.000
    O391    O    0.04167   0.80260   0.28827   1.000
    O392    O    0.81712   0.62277   0.50142   1.000
    O393    O    0.77950   0.58934   0.59091   1.000
    O394    O    0.98150   0.56766   0.60947   1.000
    O395    O    0.01268   0.60555   0.51973   1.000
    O396    O    0.78882   0.79803   0.25282   1.000
    O397    O    0.83584   0.80033   0.28975   1.000
    O398    O    0.96581   0.58379   0.23775   1.000
    O399    O    0.01008   0.59233   0.27270   1.000
    O400    O    0.29693   0.09205   0.46634   1.000
    O401    O    0.30634   0.12509   0.37870   1.000
    O402    O    0.33832   0.95333   0.35694   1.000
    O403    O    0.30731   0.89017   0.43111   1.000
    O404    O    0.91840   0.11645   0.78734   1.000
    O405    O    0.00887   0.08527   0.76718   1.000
    O406    O    0.03326   0.07798   0.56085   1.000
    O407    O    0.94276   0.10911   0.58175   1.000
    O408    O    0.31862   0.74442   0.78040   1.000
    O409    O    0.28794   0.83466   0.74332   1.000
    O410    O    0.08776   0.83530   0.75186   1.000
    O411    O    0.11176   0.74497   0.78632   1.000
    O412    O    0.31865   0.11550   0.58549   1.000
    O413    O    0.28617   0.08219   0.56113   1.000
    O414    O    0.08867   0.10337   0.76504   1.000
    O415    O    0.13499   0.12026   0.79046   1.000
