# CIF file generated by openbabel 3.0.0, see http://openbabel.sf.net
data_I
_chemical_name_common 'D:\! BYU CALCULATION\Acidic MOF Patent\Periodic_51_56\UiO67_based_cell-pos-final.pdb'
_cell_length_a 28.21
_cell_length_b 28.034
_cell_length_c 28.066
_cell_angle_alpha 89.51
_cell_angle_beta 90
_cell_angle_gamma 89.99
loop_
    _atom_site_label
    _atom_site_type_symbol
    _atom_site_fract_x
    _atom_site_fract_y
    _atom_site_fract_z
    _atom_site_occupancy
    N0      N    0.25621   0.90663   0.01030   1.000
    N1      N    0.67639   0.21336   0.01065   1.000
    N2      N    0.67499   0.90485   0.04746   1.000
    N3      N    0.25693   0.21301   0.04828   1.000
    N4      N    0.81300   0.04376   0.31783   1.000
    N5      N    0.12328   0.03961   0.73950   1.000
    N6      N    0.81310   0.07639   0.73957   1.000
    N7      N    0.12374   0.08135   0.31812   1.000
    N8      N    0.25920   0.40506   0.51085   1.000
    N9      N    0.68013   0.71208   0.50650   1.000
    N10     N    0.67728   0.40386   0.55054   1.000
    N11     N    0.25826   0.71087   0.55158   1.000
    N12     N    0.81224   0.53972   0.81853   1.000
    N13     N    0.12341   0.54382   0.23948   1.000
    N14     N    0.81227   0.57936   0.23877   1.000
    N15     N    0.12361   0.57810   0.81853   1.000
    N16     N    0.75819   0.90503   0.51406   1.000
    N17     N    0.17855   0.21436   0.50675   1.000
    N18     N    0.17776   0.90182   0.55211   1.000
    N19     N    0.75796   0.21222   0.54399   1.000
    N20     N    0.31474   0.04316   0.81703   1.000
    N21     N    0.62215   0.04376   0.23902   1.000
    N22     N    0.31456   0.08103   0.23898   1.000
    N23     N    0.62257   0.07710   0.81885   1.000
    N24     N    0.75612   0.40485   0.01058   1.000
    N25     N    0.17641   0.71490   0.01062   1.000
    N26     N    0.17699   0.40517   0.04728   1.000
    N27     N    0.75666   0.71436   0.04842   1.000
    N28     N    0.31490   0.54374   0.31534   1.000
    N29     N    0.62274   0.53965   0.73918   1.000
    N30     N    0.31454   0.57703   0.74000   1.000
    N31     N    0.62280   0.57757   0.31776   1.000
    N32     N    0.22275   0.87392   0.01016   1.000
    N33     N    0.71024   0.24551   0.01044   1.000
    N34     N    0.70949   0.87277   0.04860   1.000
    N35     N    0.22364   0.24590   0.05177   1.000
    N36     N    0.78000   0.04333   0.28473   1.000
    N37     N    0.15629   0.03940   0.77292   1.000
    N38     N    0.78006   0.07764   0.77289   1.000
    N39     N    0.15702   0.08164   0.28498   1.000
    N40     N    0.22532   0.37260   0.51042   1.000
    N41     N    0.71288   0.74583   0.50625   1.000
    N42     N    0.71092   0.37164   0.55204   1.000
    N43     N    0.22461   0.74401   0.55186   1.000
    N44     N    0.77974   0.53922   0.78507   1.000
    N45     N    0.15730   0.53994   0.27158   1.000
    N46     N    0.77966   0.58096   0.27223   1.000
    N47     N    0.15704   0.58085   0.78557   1.000
    N48     N    0.72470   0.87256   0.51074   1.000
    N49     N    0.21219   0.24722   0.50643   1.000
    N50     N    0.21126   0.86875   0.55193   1.000
    N51     N    0.72484   0.24472   0.54744   1.000
    N52     N    0.28167   0.03987   0.78400   1.000
    N53     N    0.65483   0.04357   0.27276   1.000
    N54     N    0.28173   0.08163   0.27269   1.000
    N55     N    0.65536   0.07732   0.78521   1.000
    N56     N    0.72259   0.37228   0.01055   1.000
    N57     N    0.20969   0.74775   0.01030   1.000
    N58     N    0.21075   0.37274   0.04874   1.000
    N59     N    0.72366   0.74725   0.05206   1.000
    N60     N    0.28183   0.54017   0.28231   1.000
    N61     N    0.65545   0.53976   0.77285   1.000
    N62     N    0.28125   0.58049   0.77281   1.000
    N63     N    0.65598   0.58071   0.28487   1.000
    C64     C    0.33841   0.92993   0.02662   1.000
    C65     C    0.59383   0.19059   0.02516   1.000
    C66     C    0.59279   0.92589   0.03146   1.000
    C67     C    0.33850   0.18985   0.03182   1.000
    C68     C    0.83884   0.06069   0.39854   1.000
    C69     C    0.09843   0.05269   0.65751   1.000
    C70     C    0.83884   0.05682   0.65929   1.000
    C71     C    0.09836   0.06514   0.39907   1.000
    C72     C    0.34158   0.42706   0.52435   1.000
    C73     C    0.59825   0.68749   0.52439   1.000
    C74     C    0.59631   0.42710   0.53184   1.000
    C75     C    0.34001   0.68809   0.53369   1.000
    C76     C    0.83645   0.55683   0.89906   1.000
    C77     C    0.09749   0.55862   0.15724   1.000
    C78     C    0.83673   0.56372   0.15699   1.000
    C79     C    0.09739   0.56036   0.89895   1.000
    C80     C    0.84142   0.92649   0.52439   1.000
    C81     C    0.09777   0.18984   0.52485   1.000
    C82     C    0.09739   0.92678   0.53194   1.000
    C83     C    0.84080   0.19035   0.53241   1.000
    C84     C    0.33788   0.05626   0.89902   1.000
    C85     C    0.59666   0.05990   0.15714   1.000
    C86     C    0.33859   0.06411   0.15721   1.000
    C87     C    0.59673   0.05993   0.89973   1.000
    C88     C    0.83828   0.42770   0.02391   1.000
    C89     C    0.09368   0.69173   0.02573   1.000
    C90     C    0.09447   0.42703   0.03178   1.000
    C91     C    0.83891   0.69114   0.03200   1.000
    C92     C    0.33964   0.56074   0.39711   1.000
    C93     C    0.59888   0.55224   0.65669   1.000
    C94     C    0.33957   0.55717   0.65979   1.000
    C95     C    0.59795   0.56479   0.39904   1.000
    C96     C    0.30045   0.89297   0.02323   1.000
    C97     C    0.63194   0.22739   0.02273   1.000
    C98     C    0.63118   0.88940   0.03535   1.000
    C99     C    0.30109   0.22717   0.03545   1.000
    C100    C    0.80020   0.05747   0.36191   1.000
    C101    C    0.13647   0.05205   0.69471   1.000
    C102    C    0.80031   0.06107   0.69578   1.000
    C103    C    0.13657   0.06785   0.36237   1.000
    C104    C    0.30302   0.39011   0.52332   1.000
    C105    C    0.63624   0.72432   0.52257   1.000
    C106    C    0.63403   0.38990   0.53501   1.000
    C107    C    0.30172   0.72431   0.53576   1.000
    C108    C    0.79902   0.55558   0.86193   1.000
    C109    C    0.13603   0.55598   0.19430   1.000
    C110    C    0.79926   0.56500   0.19455   1.000
    C111    C    0.13627   0.56392   0.86289   1.000
    C112    C    0.80282   0.88950   0.52346   1.000
    C113    C    0.13530   0.22728   0.52279   1.000
    C114    C    0.13473   0.88912   0.53519   1.000
    C115    C    0.80255   0.22732   0.53415   1.000
    C116    C    0.30070   0.05476   0.86129   1.000
    C117    C    0.63519   0.05702   0.19426   1.000
    C118    C    0.30123   0.06696   0.19483   1.000
    C119    C    0.63554   0.06331   0.86339   1.000
    C120    C    0.80057   0.39030   0.02238   1.000
    C121    C    0.13178   0.72856   0.02291   1.000
    C122    C    0.13279   0.39015   0.03538   1.000
    C123    C    0.80094   0.72813   0.03552   1.000
    C124    C    0.30207   0.55803   0.35967   1.000
    C125    C    0.63627   0.55177   0.69432   1.000
    C126    C    0.30178   0.56095   0.69660   1.000
    C127    C    0.63592   0.56663   0.36255   1.000
    C128    C    0.23513   0.82905   0.02277   1.000
    C129    C    0.69754   0.29042   0.02241   1.000
    C130    C    0.69752   0.82742   0.03766   1.000
    C131    C    0.23636   0.29074   0.03884   1.000
    C132    C    0.73565   0.05663   0.29745   1.000
    C133    C    0.20059   0.05214   0.75927   1.000
    C134    C    0.73586   0.06384   0.76006   1.000
    C135    C    0.20126   0.06832   0.29827   1.000
    C136    C    0.23770   0.32744   0.52261   1.000
    C137    C    0.69965   0.78972   0.52108   1.000
    C138    C    0.69970   0.32711   0.53661   1.000
    C139    C    0.23708   0.78809   0.53626   1.000
    C140    C    0.73571   0.55339   0.79733   1.000
    C141    C    0.20136   0.55486   0.25808   1.000
    C142    C    0.73588   0.56523   0.25997   1.000
    C143    C    0.20089   0.56526   0.79843   1.000
    C144    C    0.73662   0.82688   0.52222   1.000
    C145    C    0.20009   0.29092   0.52186   1.000
    C146    C    0.19915   0.82494   0.53629   1.000
    C147    C    0.73696   0.29045   0.53601   1.000
    C148    C    0.23718   0.05229   0.79654   1.000
    C149    C    0.69893   0.05667   0.25972   1.000
    C150    C    0.23767   0.06826   0.26025   1.000
    C151    C    0.69946   0.06447   0.79815   1.000
    C152    C    0.73525   0.32702   0.02241   1.000
    C153    C    0.19703   0.79266   0.02263   1.000
    C154    C    0.19849   0.32728   0.03820   1.000
    C155    C    0.73588   0.79196   0.03855   1.000
    C156    C    0.23815   0.55530   0.29485   1.000
    C157    C    0.69930   0.55282   0.75967   1.000
    C158    C    0.23734   0.56501   0.76066   1.000
    C159    C    0.69976   0.56583   0.29777   1.000
    N160    N    0.25564   0.06468   0.87408   1.000
    N161    N    0.25618   0.05609   0.18197   1.000
    N162    N    0.68095   0.05484   0.87693   1.000
    N163    N    0.67996   0.06886   0.18129   1.000
    N164    N    0.81348   0.34442   0.03121   1.000
    N165    N    0.12057   0.34424   0.02687   1.000
    N166    N    0.81405   0.77386   0.02733   1.000
    N167    N    0.11872   0.77404   0.03143   1.000
    N168    N    0.25690   0.56869   0.37271   1.000
    N169    N    0.25644   0.55205   0.68288   1.000
    N170    N    0.68147   0.55945   0.37670   1.000
    N171    N    0.68122   0.56326   0.68120   1.000
    N172    N    0.81467   0.84383   0.53405   1.000
    N173    N    0.12219   0.84395   0.52332   1.000
    N174    N    0.81470   0.27300   0.52386   1.000
    N175    N    0.12260   0.27270   0.53348   1.000
    N176    N    0.75557   0.06885   0.37492   1.000
    N177    N    0.75540   0.05184   0.68195   1.000
    N178    N    0.18138   0.05635   0.37623   1.000
    N179    N    0.18106   0.06455   0.68135   1.000
    N180    N    0.31497   0.34460   0.53526   1.000
    N181    N    0.62227   0.34467   0.52336   1.000
    N182    N    0.31429   0.76923   0.52286   1.000
    N183    N    0.62305   0.76891   0.53536   1.000
    N184    N    0.75488   0.56907   0.87394   1.000
    N185    N    0.75488   0.55299   0.18165   1.000
    N186    N    0.18122   0.55317   0.87675   1.000
    N187    N    0.18111   0.56519   0.18051   1.000
    N188    N    0.31357   0.84717   0.03136   1.000
    N189    N    0.61914   0.84353   0.02697   1.000
    N190    N    0.31431   0.27297   0.02722   1.000
    N191    N    0.61920   0.27304   0.03132   1.000
    N192    N    0.22303   0.06507   0.84044   1.000
    N193    N    0.22339   0.05637   0.21550   1.000
    N194    N    0.71403   0.05577   0.84351   1.000
    N195    N    0.71271   0.06879   0.21489   1.000
    N196    N    0.77988   0.31167   0.03136   1.000
    N197    N    0.15471   0.31189   0.02729   1.000
    N198    N    0.78026   0.80654   0.02697   1.000
    N199    N    0.15204   0.80693   0.03168   1.000
    N200    N    0.22457   0.56883   0.33911   1.000
    N201    N    0.22351   0.55251   0.71620   1.000
    N202    N    0.71380   0.55606   0.34313   1.000
    N203    N    0.71376   0.56419   0.71495   1.000
    N204    N    0.78040   0.81174   0.53554   1.000
    N205    N    0.15516   0.81066   0.52457   1.000
    N206    N    0.78091   0.30533   0.52279   1.000
    N207    N    0.15585   0.30556   0.53276   1.000
    N208    N    0.72232   0.06877   0.34178   1.000
    N209    N    0.72232   0.05234   0.71538   1.000
    N210    N    0.21456   0.05645   0.34335   1.000
    N211    N    0.21410   0.06476   0.71463   1.000
    N212    N    0.28137   0.31218   0.53522   1.000
    N213    N    0.65620   0.31256   0.52329   1.000
    N214    N    0.28100   0.80222   0.52300   1.000
    N215    N    0.65573   0.80259   0.53433   1.000
    N216    N    0.72209   0.56814   0.84062   1.000
    N217    N    0.72245   0.55202   0.21550   1.000
    N218    N    0.21408   0.55231   0.84336   1.000
    N219    N    0.21401   0.56826   0.21365   1.000
    N220    N    0.27994   0.81424   0.03136   1.000
    N221    N    0.65332   0.81132   0.02737   1.000
    N222    N    0.28063   0.30564   0.02733   1.000
    N223    N    0.65287   0.30561   0.03143   1.000
    H224    H    0.89370   0.13082   0.46061   1.000
    H225    H    0.03584   0.98794   0.45455   1.000
    H226    H    0.03603   0.13117   0.60299   1.000
    H227    H    0.89437   0.98805   0.59587   1.000
    H228    H    0.40011   0.98792   0.10269   1.000
    H229    H    0.39913   0.13371   0.95218   1.000
    H230    H    0.54046   0.12855   0.09624   1.000
    H231    H    0.53978   0.99158   0.95867   1.000
    H232    H    0.03994   0.49082   0.95995   1.000
    H233    H    0.89921   0.48867   0.10283   1.000
    H234    H    0.04009   0.62884   0.09670   1.000
    H235    H    0.90003   0.63329   0.95144   1.000
    H236    H    0.39524   0.48712   0.59615   1.000
    H237    H    0.39447   0.62965   0.45986   1.000
    H238    H    0.53679   0.63053   0.60239   1.000
    H239    H    0.53600   0.48594   0.45473   1.000
    S240    S    0.31837   0.98595   0.02836   1.000
    S241    S    0.61338   0.13453   0.01924   1.000
    S242    S    0.61167   0.98220   0.03734   1.000
    S243    S    0.31852   0.13384   0.02908   1.000
    O244    O    0.96487   0.42161   0.95671   1.000
    O245    O    0.96468   0.69777   0.09845   1.000
    O246    O    0.97092   0.68538   0.95824   1.000
    O247    O    0.96940   0.43488   0.09795   1.000
    S248    S    0.89375   0.05595   0.37712   1.000
    S249    S    0.04295   0.05407   0.68024   1.000
    S250    S    0.89361   0.06388   0.68014   1.000
    S251    S    0.04292   0.06480   0.37716   1.000
    S252    S    0.32080   0.48400   0.52264   1.000
    S253    S    0.61854   0.63131   0.52838   1.000
    S254    S    0.61736   0.48282   0.52717   1.000
    S255    S    0.31917   0.63137   0.53390   1.000
    O256    O    0.96450   0.93513   0.46107   1.000
    O257    O    0.96463   0.18566   0.59708   1.000
    O258    O    0.97235   0.19838   0.45644   1.000
    O259    O    0.97219   0.91865   0.60175   1.000
    S260    S    0.89193   0.55809   0.87679   1.000
    S261    S    0.04248   0.55629   0.17919   1.000
    S262    S    0.89210   0.56117   0.17994   1.000
    S263    S    0.04233   0.56148   0.87732   1.000
    S264    S    0.82337   0.98272   0.51434   1.000
    S265    S    0.11770   0.13367   0.52760   1.000
    S266    S    0.11731   0.98294   0.52988   1.000
    S267    S    0.82203   0.13447   0.54281   1.000
    O268    O    0.46565   0.43463   0.46072   1.000
    O269    O    0.46759   0.68541   0.59665   1.000
    O270    O    0.46791   0.69388   0.46179   1.000
    O271    O    0.46834   0.42368   0.59840   1.000
    S272    S    0.39325   0.05980   0.87718   1.000
    S273    S    0.54182   0.06006   0.17987   1.000
    S274    S    0.39372   0.05924   0.17990   1.000
    S275    S    0.54171   0.06358   0.87771   1.000
    S276    S    0.81785   0.48402   0.02523   1.000
    S277    S    0.11453   0.63588   0.02024   1.000
    S278    S    0.11438   0.48340   0.03538   1.000
    S279    S    0.81843   0.63536   0.03050   1.000
    O280    O    0.46223   0.92222   0.95657   1.000
    O281    O    0.46455   0.19496   0.09792   1.000
    O282    O    0.46934   0.18666   0.95892   1.000
    O283    O    0.47247   0.93303   0.09784   1.000
    S284    S    0.39579   0.56063   0.37570   1.000
    S285    S    0.54287   0.55576   0.67835   1.000
    S286    S    0.39544   0.56223   0.68060   1.000
    S287    S    0.54180   0.56501   0.37730   1.000
    O288    O    0.96469   0.99778   0.40132   1.000
    O289    O    0.96857   0.12865   0.39384   1.000
    O290    O    0.96828   0.98968   0.66392   1.000
    O291    O    0.96460   0.12290   0.65673   1.000
    S292    S    0.31711   0.05681   0.95535   1.000
    S293    S    0.31800   0.06256   0.10102   1.000
    S294    S    0.61715   0.05249   0.95660   1.000
    S295    S    0.61690   0.06264   0.10009   1.000
    S296    S    0.89479   0.40709   0.02801   1.000
    S297    S    0.03839   0.40552   0.02811   1.000
    S298    S    0.89491   0.71335   0.02851   1.000
    S299    S    0.03781   0.71356   0.02940   1.000
    O300    O    0.96489   0.49257   0.89752   1.000
    O301    O    0.96912   0.62322   0.89817   1.000
    O302    O    0.96922   0.49677   0.15692   1.000
    O303    O    0.96515   0.62765   0.16052   1.000
    S304    S    0.31919   0.56118   0.45327   1.000
    S305    S    0.31922   0.55366   0.60335   1.000
    S306    S    0.61773   0.56135   0.45509   1.000
    S307    S    0.61915   0.55279   0.60061   1.000
    S308    S    0.89701   0.90443   0.53401   1.000
    S309    S    0.04075   0.90536   0.52927   1.000
    S310    S    0.89603   0.21332   0.52375   1.000
    S311    S    0.04179   0.21233   0.52731   1.000
    O312    O    0.46711   0.99327   0.89418   1.000
    O313    O    0.46924   0.12615   0.89795   1.000
    O314    O    0.47189   0.99480   0.15689   1.000
    O315    O    0.46570   0.12759   0.16280   1.000
    S316    S    0.81888   0.06983   0.45534   1.000
    S317    S    0.81853   0.04663   0.60271   1.000
    S318    S    0.11849   0.06148   0.45551   1.000
    S319    S    0.11846   0.05528   0.60125   1.000
    S320    S    0.39656   0.40484   0.52760   1.000
    S321    S    0.54045   0.40523   0.53212   1.000
    S322    S    0.39491   0.71051   0.53169   1.000
    S323    S    0.54266   0.71027   0.52614   1.000
    O324    O    0.46748   0.49738   0.40150   1.000
    O325    O    0.46862   0.63132   0.38974   1.000
    O326    O    0.46829   0.49175   0.66834   1.000
    O327    O    0.46707   0.62272   0.65633   1.000
    S328    S    0.81575   0.55977   0.95532   1.000
    S329    S    0.81639   0.56103   0.10077   1.000
    S330    S    0.11837   0.55552   0.95600   1.000
    S331    S    0.11812   0.56406   0.10041   1.000
    S332    S    0.39431   0.90721   0.03004   1.000
    S333    S    0.53731   0.90334   0.02402   1.000
    S334    S    0.39422   0.21274   0.02965   1.000
    S335    S    0.53828   0.21377   0.02993   1.000
    O336    O    0.91501   0.51178   0.07821   1.000
    O337    O    0.01627   0.61198   0.07782   1.000
    O338    O    0.01664   0.50943   0.97766   1.000
    O339    O    0.91482   0.60824   0.97698   1.000
    O340    O    0.01921   0.01092   0.47857   1.000
    O341    O    0.01944   0.10891   0.57862   1.000
    O342    O    0.91884   0.11433   0.47839   1.000
    O343    O    0.91882   0.00617   0.57869   1.000
    O344    O    0.41576   0.10995   0.97745   1.000
    O345    O    0.51689   0.11134   0.07771   1.000
    O346    O    0.41691   0.01068   0.07789   1.000
    O347    O    0.51613   0.00922   0.97730   1.000
    O348    O    0.41829   0.61092   0.47707   1.000
    O349    O    0.52028   0.60649   0.57727   1.000
    O350    O    0.41813   0.50629   0.57794   1.000
    O351    O    0.51934   0.51005   0.48021   1.000
    O352    O    0.00582   0.59758   0.98931   1.000
    O353    O    0.92806   0.51874   0.98985   1.000
    O354    O    0.92719   0.60149   0.06617   1.000
    O355    O    0.00640   0.52328   0.06863   1.000
    O356    O    0.93125   0.09783   0.56797   1.000
    O357    O    0.93112   0.02312   0.49072   1.000
    O358    O    0.00659   0.01868   0.56854   1.000
    O359    O    0.00658   0.10229   0.48929   1.000
    O360    O    0.50556   0.02260   0.06795   1.000
    O361    O    0.43006   0.01860   0.98935   1.000
    O362    O    0.50516   0.09858   0.98928   1.000
    O363    O    0.42930   0.10201   0.06820   1.000
    O364    O    0.50643   0.51767   0.56904   1.000
    O365    O    0.43029   0.52220   0.48990   1.000
    O366    O    0.50656   0.59980   0.48865   1.000
    O367    O    0.42818   0.59777   0.56704   1.000
    Zr368   Zr   0.96876   0.06030   0.61867   1.000
    Zr369   Zr   0.96816   0.06048   0.43977   1.000
    Zr370   Zr   0.55245   0.06041   0.02719   1.000
    Zr371   Zr   0.38503   0.06051   0.02737   1.000
    Zr372   Zr   0.96494   0.64795   0.02295   1.000
    Zr373   Zr   0.96851   0.47298   0.03495   1.000
    Zr374   Zr   0.96481   0.56048   0.11840   1.000
    Zr375   Zr   0.96470   0.56030   0.93950   1.000
    Zr376   Zr   0.55212   0.55677   0.52728   1.000
    Zr377   Zr   0.38097   0.55998   0.52735   1.000
    Zr378   Zr   0.96860   0.15155   0.53130   1.000
    Zr379   Zr   0.96853   0.96902   0.52674   1.000
    Zr380   Zr   0.46837   0.06030   0.11851   1.000
    Zr381   Zr   0.46823   0.06023   0.93946   1.000
    Zr382   Zr   0.05224   0.06048   0.52724   1.000
    Zr383   Zr   0.88219   0.06038   0.53091   1.000
    Zr384   Zr   0.46951   0.64809   0.53109   1.000
    Zr385   Zr   0.46848   0.46866   0.52710   1.000
    Zr386   Zr   0.46928   0.56026   0.61489   1.000
    Zr387   Zr   0.46878   0.55991   0.43987   1.000
    Zr388   Zr   0.05623   0.56027   0.02719   1.000
    Zr389   Zr   0.88154   0.56012   0.02712   1.000
    Zr390   Zr   0.46725   0.15144   0.02316   1.000
    Zr391   Zr   0.46864   0.96906   0.03503   1.000
    H392    H    0.00261   0.90148   0.59483   1.000
    H393    H    0.00340   0.21510   0.46207   1.000
    H394    H    0.49986   0.62800   0.37313   1.000
    H395    H    0.49779   0.71194   0.46050   1.000
    H396    H    0.46653   0.67344   0.43289   1.000
    H397    H    0.49903   0.49534   0.68566   1.000
    H398    H    0.49826   0.40583   0.59968   1.000
    H399    H    0.46774   0.44462   0.62704   1.000
    H400    H    0.93421   0.40496   0.96430   1.000
    H401    H    0.93575   0.49077   0.87821   1.000
    H402    H    0.96582   0.46264   0.91808   1.000
    H403    H    0.93359   0.71409   0.09296   1.000
    H404    H    0.93509   0.62806   0.17869   1.000
    H405    H    0.96571   0.65690   0.13918   1.000
    H406    H    0.43726   0.99279   0.87561   1.000
    H407    H    0.43107   0.90653   0.96437   1.000
    H408    H    0.46523   0.96483   0.91637   1.000
    H409    H    0.43532   0.12712   0.18019   1.000
    H410    H    0.43364   0.21269   0.09364   1.000
    H411    H    0.46538   0.15621   0.14089   1.000
    H412    H    0.96864   0.96100   0.64272   1.000
    H413    H    0.96853   0.15750   0.41472   1.000
    H414    H    0.99816   0.98838   0.68231   1.000
    H415    H    0.99799   0.13077   0.37460   1.000
    S416    S    0.98378   0.94665   0.41083   1.000
    S417    S    0.98398   0.17399   0.64753   1.000
    O418    O    0.03592   0.95158   0.41472   1.000
    O419    O    0.96503   0.91420   0.37659   1.000
    O420    O    0.96508   0.20662   0.68153   1.000
    O421    O    0.03602   0.16892   0.64361   1.000
    H422    H    0.94649   0.89445   0.60018   1.000
    H423    H    0.94711   0.22299   0.45676   1.000
    S424    S    0.45113   0.94491   0.14766   1.000
    S425    S    0.44875   0.17571   0.90839   1.000
    O426    O    0.46345   0.21068   0.87387   1.000
    O427    O    0.39671   0.16909   0.91502   1.000
    O428    O    0.46765   0.91044   0.18176   1.000
    O429    O    0.39895   0.95021   0.14060   1.000
    H430    H    0.48637   0.89634   0.95778   1.000
    H431    H    0.49053   0.21875   0.09759   1.000
    S432    S    0.95018   0.67396   0.90861   1.000
    S433    S    0.94948   0.44587   0.14798   1.000
    O434    O    0.89790   0.66874   0.91502   1.000
    O435    O    0.96510   0.70734   0.87290   1.000
    O436    O    0.89744   0.45187   0.14306   1.000
    O437    O    0.96618   0.41105   0.18158   1.000
    H438    H    0.99040   0.39736   0.95999   1.000
    H439    H    0.99016   0.72211   0.09749   1.000
    S440    S    0.48762   0.44682   0.41187   1.000
    S441    S    0.48858   0.67261   0.64614   1.000
    O442    O    0.47309   0.41391   0.37634   1.000
    O443    O    0.53969   0.45229   0.41885   1.000
    O444    O    0.54044   0.66482   0.63941   1.000
    O445    O    0.47467   0.70634   0.68138   1.000
    H446    H    0.44185   0.49575   0.69165   1.000
    H447    H    0.44296   0.62882   0.36558   1.000
