# CIF file generated by openbabel 3.0.0, see http://openbabel.sf.net
data_I
_chemical_name_common 'D:\! BYU CALCULATION\Acidic MOF Patent\Periodic_07_00\mof808_cellopt_pbesol-pos-final.pdb'
_cell_length_a 29.803
_cell_length_b 29.983
_cell_length_c 29.623
_cell_angle_alpha 60
_cell_angle_beta 60.3
_cell_angle_gamma 58.95
loop_
    _atom_site_label
    _atom_site_type_symbol
    _atom_site_fract_x
    _atom_site_fract_y
    _atom_site_fract_z
    _atom_site_occupancy
    H0      H    0.02665   0.24356   0.54679   1.000
    H1      H    0.57893   0.23751   0.28004   1.000
    H2      H    0.71229   0.10911   0.27486   1.000
    H3      H    0.43632   0.97850   0.53539   1.000
    H4      H    0.43635   0.97221   0.40698   1.000
    H5      H    0.42762   0.24378   0.41846   1.000
    H6      H    0.71069   0.96806   0.27049   1.000
    H7      H    0.43891   0.11477   0.54823   1.000
    H8      H    0.58240   0.97284   0.26366   1.000
    H9      H    0.43500   0.24943   0.26642   1.000
    H10     H    0.70734   0.96448   0.41994   1.000
    H11     H    0.58167   0.96429   0.54840   1.000
    H12     H    0.43646   0.12086   0.26613   1.000
    H13     H    0.76067   0.13690   0.73997   1.000
    H14     H    0.59980   0.29406   0.73820   1.000
    H15     H    0.89296   0.43680   0.43442   1.000
    H16     H    0.89966   0.43715   0.59427   1.000
    H17     H    0.90471   0.13026   0.59403   1.000
    H18     H    0.59678   0.44067   0.73606   1.000
    H19     H    0.89973   0.28978   0.43306   1.000
    H20     H    0.75550   0.44018   0.73956   1.000
    H21     H    0.90869   0.13584   0.73479   1.000
    H22     H    0.59688   0.43757   0.59168   1.000
    H23     H    0.74954   0.43309   0.43516   1.000
    H24     H    0.90253   0.29331   0.74034   1.000
    C25     C    0.50584   0.24126   0.35242   1.000
    C26     C    0.71268   0.04116   0.26650   1.000
    C27     C    0.51179   0.96638   0.33760   1.000
    C28     C    0.53547   0.24143   0.29806   1.000
    C29     C    0.71223   0.06697   0.29526   1.000
    C30     C    0.45714   0.99607   0.54054   1.000
    C31     C    0.45725   0.99386   0.36497   1.000
    C32     C    0.71011   0.95995   0.34768   1.000
    C33     C    0.51291   0.04139   0.54988   1.000
    C34     C    0.51191   0.04953   0.25860   1.000
    C35     C    0.50994   0.24496   0.26687   1.000
    C36     C    0.71052   0.03927   0.35036   1.000
    C37     C    0.51099   0.96508   0.54317   1.000
    C38     C    0.45065   0.24469   0.37571   1.000
    C39     C    0.71151   0.98769   0.29271   1.000
    C40     C    0.45883   0.07249   0.54741   1.000
    C41     C    0.53927   0.99407   0.28444   1.000
    C42     C    0.45484   0.24808   0.29004   1.000
    C43     C    0.70961   0.98570   0.37661   1.000
    C44     C    0.53900   0.98771   0.54774   1.000
    C45     C    0.45737   0.07717   0.28580   1.000
    C46     C    0.83011   0.13170   0.66467   1.000
    C47     C    0.59648   0.36507   0.74363   1.000
    C48     C    0.82543   0.44520   0.66455   1.000
    C49     C    0.80395   0.13369   0.71837   1.000
    C50     C    0.59694   0.33710   0.71705   1.000
    C51     C    0.87403   0.41519   0.43220   1.000
    C52     C    0.87992   0.41724   0.63760   1.000
    C53     C    0.59481   0.44569   0.66155   1.000
    C54     C    0.82252   0.35915   0.43212   1.000
    C55     C    0.82692   0.36479   0.74660   1.000
    C56     C    0.83237   0.13458   0.74392   1.000
    C57     C    0.59677   0.36335   0.66249   1.000
    C58     C    0.81894   0.44152   0.43273   1.000
    C59     C    0.88481   0.13007   0.63661   1.000
    C60     C    0.59511   0.41947   0.71603   1.000
    C61     C    0.87746   0.33291   0.43154   1.000
    C62     C    0.79890   0.41920   0.71919   1.000
    C63     C    0.88693   0.13303   0.71598   1.000
    C64     C    0.59533   0.41779   0.63476   1.000
    C65     C    0.79315   0.41368   0.43253   1.000
    C66     C    0.88140   0.33655   0.71969   1.000
    O67     O    0.23231   0.18391   0.47158   1.000
    O68     O    0.06692   0.23170   0.53243   1.000
    O69     O    0.13750   0.32012   0.59641   1.000
    H70     H    0.11995   0.17466   0.68591   1.000
    O71     O    0.12021   0.20390   0.65027   1.000
    S72     S    0.19645   0.29352   0.57218   1.000
    O73     O    0.23538   0.30248   0.57868   1.000
    H74     H    0.15343   0.21477   0.63357   1.000
    O75     O    0.21016   0.22950   0.58987   1.000
    O76     O    0.09474   0.12440   0.67430   1.000
    H77     H    0.21369   0.12225   0.60855   1.000
    Zr78    Zr   0.10527   0.17932   0.59933   1.000
    H79     H    0.06775   0.10717   0.68928   1.000
    O80     O    0.19778   0.14364   0.57868   1.000
    H81     H    0.31123   0.02073   0.55399   1.000
    O82     O    0.27255   0.02450   0.56111   1.000
    Zr83    Zr   0.22177   0.22762   0.51301   1.000
    O84     O    0.20816   0.30700   0.50885   1.000
    O85     O    0.13906   0.24417   0.53938   1.000
    H86     H    0.27373   0.99379   0.55646   1.000
    O87     O    0.14325   0.13822   0.54087   1.000
    O88     O    0.10929   0.36011   0.49947   1.000
    Zr89    Zr   0.22700   0.10888   0.51194   1.000
    H90     H    0.14927   0.34491   0.49849   1.000
    Zr91    Zr   0.09842   0.29876   0.48351   1.000
    H92     H    0.24132   0.03373   0.47116   1.000
    O93     O    0.21636   0.04317   0.50495   1.000
    H94     H    0.17686   0.06037   0.50095   1.000
    Zr95    Zr   0.10531   0.18136   0.47931   1.000
    O96     O    0.18583   0.29155   0.43858   1.000
    O97     O    0.12446   0.09524   0.48857   1.000
    O98     O    0.05227   0.38682   0.44055   1.000
    H99     H    0.20050   0.32142   0.41689   1.000
    O100    O    0.13470   0.24818   0.43656   1.000
    O101    O    0.19577   0.15222   0.43738   1.000
    H102    H    0.04627   0.41461   0.45322   1.000
    Zr103   Zr   0.21997   0.22602   0.39578   1.000
    O104    O    0.19406   0.31512   0.33168   1.000
    H105    H    0.15440   0.33266   0.33719   1.000
    H106    H    0.01656   0.39187   0.43928   1.000
    O107    O    0.10393   0.17326   0.41331   1.000
    H108    H    0.20404   0.12987   0.41504   1.000
    S109    S    0.13219   0.10979   0.42648   1.000
    O110    O    0.19257   0.09610   0.39685   1.000
    O111    O    0.10508   0.08598   0.42076   1.000
    H112    H    0.21062   0.29548   0.30465   1.000
    O113    O    0.23962   0.22522   0.32082   1.000
    H114    H    0.26931   0.19628   0.30526   1.000
    H115    H    0.08960   0.35869   0.53823   1.000
    C116    C    0.91304   0.13108   0.66217   1.000
    C117    C    0.90304   0.36093   0.43203   1.000
    C118    C    0.90767   0.36277   0.66496   1.000
    C119    C    0.96731   0.13639   0.63065   1.000
    N120    N    0.99093   0.14564   0.57580   1.000
    N121    N    0.99699   0.13911   0.65138   1.000
    N122    N    0.03889   0.15118   0.60830   1.000
    C123    C    0.95782   0.33089   0.43849   1.000
    N124    N    0.98534   0.35130   0.44438   1.000
    N125    N    0.98535   0.27652   0.44508   1.000
    N126    N    0.02952   0.26370   0.45541   1.000
    C127    C    0.96113   0.33144   0.63419   1.000
    N128    N    0.98743   0.35247   0.58020   1.000
    N129    N    0.98721   0.27643   0.65431   1.000
    N130    N    0.02968   0.26339   0.61205   1.000
    N131    N    0.03534   0.15479   0.56280   1.000
    N132    N    0.02978   0.30931   0.56716   1.000
    N133    N    0.02960   0.30836   0.45528   1.000
    C134    C    0.43117   0.04974   0.54259   1.000
    C135    C    0.42523   0.24804   0.34435   1.000
    C136    C    0.43016   0.04928   0.33909   1.000
    C137    C    0.37609   0.08238   0.53700   1.000
    N138    N    0.34658   0.06255   0.53325   1.000
    N139    N    0.34881   0.13626   0.53227   1.000
    N140    N    0.30152   0.10533   0.52511   1.000
    N141    N    0.30246   0.14933   0.52507   1.000
    C142    C    0.36852   0.24900   0.36970   1.000
    N143    N    0.33826   0.24831   0.42220   1.000
    N144    N    0.34074   0.24829   0.34538   1.000
    N145    N    0.29157   0.24683   0.43014   1.000
    N146    N    0.29273   0.24671   0.38389   1.000
    C147    C    0.37466   0.07876   0.36888   1.000
    N148    N    0.34706   0.05640   0.42191   1.000
    N149    N    0.34563   0.13260   0.34793   1.000
    N150    N    0.30073   0.09788   0.43310   1.000
    N151    N    0.29987   0.14363   0.38895   1.000
    H152    H    0.71108   0.24344   0.54691   1.000
    O153    O    0.64102   0.16838   0.48742   1.000
    O154    O    0.69702   0.22927   0.53519   1.000
    O155    O    0.47283   0.29433   0.62238   1.000
    H156    H    0.54681   0.38322   0.47693   1.000
    O157    O    0.55246   0.34806   0.50688   1.000
    S158    S    0.46468   0.27017   0.59617   1.000
    O159    O    0.40984   0.27722   0.60538   1.000
    H160    H    0.52529   0.33125   0.51762   1.000
    O161    O    0.49773   0.28759   0.53223   1.000
    O162    O    0.63432   0.37099   0.42714   1.000
    H163    H    0.58325   0.30565   0.42636   1.000
    Zr164   Zr   0.64378   0.29657   0.48293   1.000
    H165    H    0.66356   0.38605   0.40940   1.000
    O166    O    0.60784   0.27557   0.44763   1.000
    H167    H    0.64397   0.25089   0.32444   1.000
    O168    O    0.67185   0.25776   0.32818   1.000
    Zr169   Zr   0.56557   0.21048   0.53079   1.000
    O170    O    0.50304   0.20660   0.60979   1.000
    O171    O    0.60491   0.23673   0.54766   1.000
    H172    H    0.70653   0.25257   0.29769   1.000
    O173    O    0.70623   0.23736   0.44236   1.000
    O174    O    0.55756   0.19805   0.66262   1.000
    Zr175   Zr   0.68122   0.20884   0.41261   1.000
    H176    H    0.53435   0.19590   0.64797   1.000
    Zr177   Zr   0.64688   0.18070   0.60213   1.000
    H178    H    0.78398   0.16710   0.33834   1.000
    O179    O    0.76564   0.20110   0.34740   1.000
    H180    H    0.79184   0.19691   0.36464   1.000
    Zr181   Zr   0.76281   0.17569   0.48532   1.000
    O182    O    0.61206   0.13590   0.59489   1.000
    O183    O    0.82150   0.18429   0.39965   1.000
    O184    O    0.64654   0.13896   0.69027   1.000
    H185    H    0.58907   0.11419   0.62464   1.000
    O186    O    0.70909   0.13320   0.55210   1.000
    O187    O    0.74402   0.13374   0.45627   1.000
    H188    H    0.61128   0.15287   0.71710   1.000
    Zr189   Zr   0.68728   0.09263   0.52951   1.000
    O190    O    0.68782   0.02861   0.61888   1.000
    H191    H    0.70426   0.03412   0.63633   1.000
    H192    H    0.67819   0.13816   0.69533   1.000
    O193    O    0.83902   0.10897   0.47771   1.000
    H194    H    0.78090   0.11111   0.43417   1.000
    S195    S    0.86166   0.12203   0.41438   1.000
    O196    O    0.84491   0.09248   0.40076   1.000
    O197    O    0.91867   0.11603   0.39072   1.000
    H198    H    0.71849   0.00141   0.59946   1.000
    O199    O    0.74430   0.01759   0.52910   1.000
    H200    H    0.76054   0.00216   0.49993   1.000
    H201    H    0.53943   0.23755   0.65912   1.000
    C202    C    0.79940   0.13709   0.63505   1.000
    N203    N    0.74542   0.14278   0.65513   1.000
    N204    N    0.82076   0.14250   0.58098   1.000
    N205    N    0.77953   0.15194   0.56802   1.000
    C206    C    0.60394   0.33196   0.63283   1.000
    N207    N    0.61096   0.35191   0.57835   1.000
    N208    N    0.60996   0.27812   0.65472   1.000
    N209    N    0.62154   0.26486   0.61267   1.000
    C210    C    0.79403   0.32765   0.43854   1.000
    N211    N    0.74026   0.34845   0.44228   1.000
    N212    N    0.81643   0.27267   0.44779   1.000
    N213    N    0.77552   0.25958   0.45812   1.000
    N214    N    0.73416   0.15236   0.61230   1.000
    N215    N    0.72942   0.30525   0.45504   1.000
    N216    N    0.62205   0.30967   0.56654   1.000
    C217    C    0.70698   0.06749   0.38101   1.000
    N218    N    0.70453   0.12014   0.35954   1.000
    N219    N    0.70301   0.04542   0.43496   1.000
    N220    N    0.69732   0.08547   0.44668   1.000
    C221    C    0.53377   0.23489   0.38525   1.000
    N222    N    0.51149   0.22959   0.43924   1.000
    N223    N    0.58712   0.23101   0.36558   1.000
    N224    N    0.59728   0.22227   0.40858   1.000
    C225    C    0.54244   0.06660   0.55193   1.000
    N226    N    0.52006   0.11913   0.55144   1.000
    N227    N    0.59543   0.04229   0.55165   1.000
    N228    N    0.60573   0.08082   0.55049   1.000
    N229    N    0.69844   0.13017   0.40134   1.000
    N230    N    0.55993   0.12716   0.55045   1.000
    N231    N    0.55194   0.22202   0.45240   1.000
    H232    H    0.71109   0.25224   0.86411   1.000
    O233    O    0.64756   0.17900   0.06838   1.000
    O234    O    0.69862   0.23817   0.90427   1.000
    O235    O    0.78207   0.29913   0.98508   1.000
    H236    H    0.63861   0.39275   0.95529   1.000
    O237    O    0.66692   0.35585   0.95821   1.000
    S238    S    0.75399   0.27516   0.04283   1.000
    O239    O    0.76045   0.28113   0.08419   1.000
    H240    H    0.67680   0.33911   0.99265   1.000
    O241    O    0.69046   0.29445   0.05176   1.000
    O242    O    0.58995   0.38211   0.92468   1.000
    H243    H    0.58495   0.31673   0.04711   1.000
    Zr244   Zr   0.64444   0.30634   0.93986   1.000
    H245    H    0.57451   0.39816   0.89518   1.000
    O246    O    0.60671   0.28673   0.03168   1.000
    H247    H    0.48273   0.26422   0.13949   1.000
    O248    O    0.48725   0.27212   0.10011   1.000
    Zr249   Zr   0.69035   0.21832   0.06188   1.000
    O250    O    0.76874   0.21212   0.05423   1.000
    O251    O    0.70855   0.24466   0.97870   1.000
    H252    H    0.45801   0.26699   0.09900   1.000
    O253    O    0.60396   0.24930   0.97512   1.000
    O254    O    0.82427   0.20270   0.95562   1.000
    Zr255   Zr   0.57297   0.22178   0.05847   1.000
    H256    H    0.80884   0.20095   0.99561   1.000
    Zr257   Zr   0.76459   0.18758   0.94040   1.000
    H258    H    0.50062   0.18222   0.06711   1.000
    O259    O    0.50898   0.21611   0.04292   1.000
    H260    H    0.52710   0.21226   0.00350   1.000
    Zr261   Zr   0.64928   0.18684   0.93875   1.000
    O262    O    0.75555   0.14348   0.02843   1.000
    O263    O    0.56333   0.19928   0.95192   1.000
    O264    O    0.85382   0.14378   0.89793   1.000
    H265    H    0.78496   0.11990   0.04522   1.000
    O266    O    0.71523   0.14201   0.97253   1.000
    O267    O    0.61835   0.14567   0.02831   1.000
    H268    H    0.87972   0.15761   0.89353   1.000
    Zr269   Zr   0.69077   0.10231   0.05810   1.000
    O270    O    0.78116   0.03722   0.03526   1.000
    H271    H    0.79731   0.04000   0.99648   1.000
    H272    H    0.85962   0.14314   0.86156   1.000
    O273    O    0.64216   0.12241   0.93484   1.000
    H274    H    0.59641   0.12440   0.03497   1.000
    S275    S    0.57838   0.13771   0.95932   1.000
    O276    O    0.56331   0.10805   0.01946   1.000
    O277    O    0.55618   0.13363   0.92892   1.000
    H278    H    0.76212   0.00975   0.05497   1.000
    O279    O    0.69206   0.02609   0.08279   1.000
    H280    H    0.66486   0.01157   0.11591   1.000
    H281    H    0.82080   0.24178   0.93682   1.000
    C282    C    0.80188   0.14291   0.79741   1.000
    N283    N    0.82104   0.14886   0.82642   1.000
    N284    N    0.74739   0.15062   0.82226   1.000
    N285    N    0.73321   0.16168   0.86637   1.000
    C286    C    0.79684   0.33544   0.80066   1.000
    N287    N    0.74187   0.35715   0.82556   1.000
    N288    N    0.81844   0.28163   0.82909   1.000
    N289    N    0.77561   0.27041   0.87148   1.000
    C290    C    0.60362   0.33535   0.79787   1.000
    N291    N    0.60631   0.35723   0.82650   1.000
    N292    N    0.61449   0.28044   0.82288   1.000
    N293    N    0.62456   0.26869   0.86687   1.000
    N294    N    0.77717   0.16090   0.86897   1.000
    N295    N    0.62000   0.31487   0.86909   1.000
    N296    N    0.72935   0.31617   0.86929   1.000
    C297    C    0.54145   0.07945   0.20458   1.000
    N298    N    0.51914   0.13303   0.17639   1.000
    N299    N    0.59580   0.05761   0.17771   1.000
    N300    N    0.60703   0.09866   0.13307   1.000
    C301    C    0.54231   0.24227   0.21129   1.000
    N302    N    0.59633   0.23654   0.18693   1.000
    N303    N    0.52321   0.24211   0.17829   1.000
    N304    N    0.56669   0.23487   0.13414   1.000
    C305    C    0.71224   0.07078   0.20976   1.000
    N306    N    0.71036   0.12354   0.18203   1.000
    N307    N    0.71164   0.04956   0.17923   1.000
    N308    N    0.70898   0.09007   0.13220   1.000
    N309    N    0.56108   0.14377   0.13204   1.000
    N310    N    0.70829   0.13472   0.13397   1.000
    N311    N    0.61017   0.23217   0.13903   1.000
    H312    H    0.70529   0.56297   0.54766   1.000
    O313    O    0.63936   0.76786   0.47335   1.000
    O314    O    0.69194   0.60319   0.53321   1.000
    O315    O    0.46362   0.68934   0.59510   1.000
    H316    H    0.54598   0.65666   0.68673   1.000
    O317    O    0.55071   0.65946   0.65040   1.000
    S318    S    0.45931   0.74670   0.57033   1.000
    O319    O    0.40576   0.78939   0.57568   1.000
    H320    H    0.52321   0.69451   0.63382   1.000
    O321    O    0.49563   0.75437   0.58913   1.000
    O322    O    0.63520   0.62503   0.67624   1.000
    H323    H    0.58481   0.74740   0.61032   1.000
    Zr324   Zr   0.64199   0.63992   0.60069   1.000
    H325    H    0.66424   0.59495   0.69216   1.000
    O326    O    0.60855   0.73180   0.58045   1.000
    H327    H    0.64891   0.83785   0.55761   1.000
    O328    O    0.67626   0.79834   0.56506   1.000
    Zr329   Zr   0.56296   0.76222   0.51322   1.000
    O330    O    0.49698   0.75665   0.50754   1.000
    O331    O    0.60032   0.67875   0.54008   1.000
    H332    H    0.71192   0.79698   0.55996   1.000
    O333    O    0.70541   0.67409   0.54276   1.000
    O334    O    0.54821   0.65738   0.49972   1.000
    Zr335   Zr   0.68210   0.75730   0.51515   1.000
    H336    H    0.52581   0.69767   0.49737   1.000
    Zr337   Zr   0.63967   0.64033   0.48351   1.000
    H338    H    0.78704   0.76336   0.47507   1.000
    O339    O    0.76840   0.73963   0.50910   1.000
    H340    H    0.79319   0.70004   0.50532   1.000
    Zr341   Zr   0.75901   0.63682   0.48116   1.000
    O342    O    0.60547   0.72842   0.43907   1.000
    O343    O    0.82084   0.64826   0.49277   1.000
    O344    O    0.63465   0.59876   0.44100   1.000
    H345    H    0.58216   0.74586   0.41611   1.000
    O346    O    0.70330   0.67174   0.43751   1.000
    O347    O    0.74276   0.72640   0.43952   1.000
    H348    H    0.59872   0.59506   0.45582   1.000
    Zr349   Zr   0.68328   0.75719   0.39718   1.000
    O350    O    0.68001   0.73473   0.33291   1.000
    H351    H    0.69827   0.69544   0.33744   1.000
    H352    H    0.66577   0.56195   0.44039   1.000
    O353    O    0.83543   0.63115   0.41665   1.000
    H354    H    0.77992   0.73207   0.41792   1.000
    S355    S    0.86042   0.65468   0.43138   1.000
    O356    O    0.84590   0.71481   0.40126   1.000
    O357    O    0.91744   0.62300   0.42734   1.000
    H358    H    0.70871   0.75204   0.30539   1.000
    O359    O    0.73637   0.77814   0.32180   1.000
    H360    H    0.74911   0.80861   0.30621   1.000
    H361    H    0.53109   0.63931   0.53901   1.000
    C362    C    0.78857   0.49576   0.43956   1.000
    N363    N    0.73434   0.52631   0.44491   1.000
    N364    N    0.81168   0.51985   0.44635   1.000
    N365    N    0.77135   0.56501   0.45627   1.000
    C366    C    0.60010   0.49980   0.63139   1.000
    N367    N    0.60810   0.52508   0.65262   1.000
    N368    N    0.60347   0.52825   0.57782   1.000
    N369    N    0.61443   0.57115   0.56621   1.000
    C370    C    0.79455   0.49870   0.63295   1.000
    N371    N    0.74075   0.52840   0.65332   1.000
    N372    N    0.81484   0.52146   0.57786   1.000
    N373    N    0.77268   0.56521   0.56428   1.000
    N374    N    0.72482   0.56898   0.45569   1.000
    N375    N    0.72786   0.56932   0.60974   1.000
    N376    N    0.61714   0.56905   0.61164   1.000
    C377    C    0.70661   0.90510   0.37558   1.000
    N378    N    0.70584   0.87475   0.42821   1.000
    N379    N    0.70114   0.87931   0.35283   1.000
    N380    N    0.69613   0.83299   0.39233   1.000
    C381    C    0.53809   0.91027   0.53819   1.000
    N382    N    0.51398   0.88668   0.53202   1.000
    N383    N    0.59108   0.87741   0.53642   1.000
    N384    N    0.59937   0.83405   0.52786   1.000
    C385    C    0.54035   0.90950   0.36612   1.000
    N386    N    0.51752   0.88169   0.41895   1.000
    N387    N    0.59308   0.87893   0.34439   1.000
    N388    N    0.60278   0.83175   0.38472   1.000
    N389    N    0.69926   0.83011   0.43738   1.000
    N390    N    0.55695   0.83362   0.42969   1.000
    N391    N    0.55317   0.83936   0.52581   1.000
