# CIF file generated by openbabel 3.0.0, see http://openbabel.sf.net
data_I
_chemical_name_common 'D:\! BYU CALCULATION\Acidic MOF Patent\Periodic_07_10_Hf\mof808_cellopt_pbesol-pos-final.pdb'
_cell_length_a 29.536
_cell_length_b 29.873
_cell_length_c 29.528
_cell_angle_alpha 59.91
_cell_angle_beta 60.34
_cell_angle_gamma 59.19
_space_group_name_H-M_alt 'P 1'
_space_group_name_Hall 'P 1'
loop_
    _symmetry_equiv_pos_as_xyz
    x,y,z
loop_
    _atom_site_label
    _atom_site_type_symbol
    _atom_site_fract_x
    _atom_site_fract_y
    _atom_site_fract_z
    _atom_site_occupancy
    H0      H    0.87260   0.50894   0.58655   1.000
    H1      H    0.42827   0.48215   0.32989   1.000
    N2      N    0.56199   0.39049   0.30695   1.000
    N3      N    0.28397   0.24706   0.55511   1.000
    H4      H    0.27921   0.23693   0.44587   1.000
    N5      N    0.25659   0.56741   0.44070   1.000
    N6      N    0.59911   0.21357   0.29468   1.000
    H7      H    0.28544   0.38000   0.59197   1.000
    N8      N    0.43336   0.22546   0.28774   1.000
    N9      N    0.27025   0.56148   0.28113   1.000
    H10     H    0.54709   0.23401   0.46029   1.000
    N11     N    0.44356   0.22093   0.59188   1.000
    N12     N    0.27822   0.40150   0.29997   1.000
    N13     N    0.59039   0.40374   0.78687   1.000
    H14     H    0.44879   0.55944   0.77468   1.000
    N15     N    0.75248   0.72794   0.43954   1.000
    N16     N    0.75370   0.70790   0.61568   1.000
    H17     H    0.75146   0.39530   0.63663   1.000
    N18     N    0.43327   0.71407   0.78976   1.000
    N19     N    0.77032   0.57292   0.41649   1.000
    N20     N    0.59653   0.72433   0.78963   1.000
    N21     N    0.75846   0.40614   0.78455   1.000
    N22     N    0.45035   0.71260   0.61457   1.000
    H23     H    0.59595   0.68500   0.50123   1.000
    H24     H    0.74414   0.55956   0.77844   1.000
    C25     C    0.35164   0.50681   0.39422   1.000
    C26     C    0.57194   0.30575   0.30030   1.000
    C27     C    0.35280   0.22798   0.37472   1.000
    C28     C    0.38277   0.49923   0.34253   1.000
    C29     C    0.56387   0.33251   0.33307   1.000
    C30     C    0.30847   0.26597   0.57271   1.000
    C31     C    0.29965   0.25774   0.40281   1.000
    C32     C    0.56464   0.22441   0.38476   1.000
    C33     C    0.36049   0.30737   0.59263   1.000
    C34     C    0.35567   0.31320   0.29419   1.000
    C35     C    0.35658   0.51481   0.30571   1.000
    C36     C    0.55794   0.30675   0.38976   1.000
    C37     C    0.36140   0.23220   0.57862   1.000
    C38     C    0.29280   0.52704   0.41075   1.000
    C39     C    0.57634   0.24981   0.32720   1.000
    C40     C    0.30662   0.33847   0.58874   1.000
    C41     C    0.37881   0.25607   0.31997   1.000
    C42     C    0.29783   0.53197   0.32410   1.000
    C43     C    0.55583   0.25335   0.41546   1.000
    C44     C    0.38655   0.25448   0.58817   1.000
    C45     C    0.30244   0.34093   0.32451   1.000
    C46     C    0.67568   0.39775   0.70609   1.000
    C47     C    0.44095   0.62983   0.78513   1.000
    C48     C    0.67421   0.71669   0.70220   1.000
    C49     C    0.64950   0.39968   0.76013   1.000
    C50     C    0.44479   0.60308   0.75501   1.000
    C51     C    0.72472   0.68845   0.45975   1.000
    C52     C    0.72674   0.68418   0.67572   1.000
    C53     C    0.43982   0.71417   0.70266   1.000
    C54     C    0.67386   0.62403   0.47111   1.000
    C55     C    0.67276   0.63406   0.78612   1.000
    C56     C    0.67637   0.40053   0.78773   1.000
    C57     C    0.44625   0.62993   0.69964   1.000
    C58     C    0.66594   0.70818   0.47462   1.000
    C59     C    0.73089   0.39564   0.67923   1.000
    C60     C    0.43720   0.68542   0.75844   1.000
    C61     C    0.73211   0.60845   0.45256   1.000
    C62     C    0.64944   0.69066   0.75852   1.000
    C63     C    0.73133   0.39983   0.75827   1.000
    C64     C    0.44439   0.68493   0.67427   1.000
    C65     C    0.64138   0.67348   0.48429   1.000
    C66     C    0.72548   0.60387   0.75790   1.000
    O67     O    0.07890   0.45094   0.51346   1.000
    O68     O    0.91310   0.49754   0.57255   1.000
    O69     O    0.98525   0.58563   0.63928   1.000
    H70     H    0.96534   0.44091   0.72683   1.000
    O71     O    0.96613   0.46979   0.69068   1.000
    S72     S    0.04406   0.55889   0.61382   1.000
    O73     O    0.08514   0.56658   0.61882   1.000
    H74     H    0.99911   0.48150   0.67431   1.000
    O75     O    0.05676   0.49472   0.63114   1.000
    O76     O    0.94116   0.39078   0.71439   1.000
    H77     H    0.05965   0.38843   0.65097   1.000
    Hf78    Hf   0.95222   0.44476   0.64002   1.000
    H79     H    0.91313   0.37363   0.73282   1.000
    O80     O    0.04439   0.40924   0.62048   1.000
    H81     H    0.16006   0.28930   0.59457   1.000
    O82     O    0.12096   0.29296   0.60209   1.000
    Hf83    Hf   0.06640   0.49455   0.55548   1.000
    O84     O    0.05380   0.57280   0.55048   1.000
    O85     O    0.98517   0.50917   0.58106   1.000
    H86     H    0.12223   0.26011   0.60102   1.000
    O87     O    0.99048   0.40525   0.58155   1.000
    O88     O    0.95421   0.62476   0.54189   1.000
    Hf89    Hf   0.07419   0.37561   0.55404   1.000
    H90     H    0.99346   0.61002   0.54321   1.000
    Hf91    Hf   0.94481   0.56400   0.52487   1.000
    H92     H    0.08849   0.29615   0.51949   1.000
    O93     O    0.06230   0.31035   0.55032   1.000
    H94     H    0.02260   0.32712   0.54561   1.000
    Hf95    Hf   0.95301   0.44697   0.52073   1.000
    O96     O    0.03062   0.55774   0.48177   1.000
    O97     O    0.97122   0.36084   0.53325   1.000
    O98     O    0.90231   0.65044   0.48078   1.000
    H99     H    0.04312   0.58936   0.45967   1.000
    O100    O    0.98214   0.51257   0.47884   1.000
    O101    O    0.04332   0.41804   0.47921   1.000
    H102    H    0.89538   0.68035   0.49119   1.000
    Hf103   Hf   0.06656   0.49200   0.43855   1.000
    O104    O    0.03848   0.58003   0.37596   1.000
    H105    H    0.99929   0.59676   0.37839   1.000
    H106    H    0.86890   0.65752   0.47260   1.000
    O107    O    0.95055   0.43761   0.45715   1.000
    H108    H    0.05183   0.39486   0.45760   1.000
    S109    S    0.97856   0.37376   0.47136   1.000
    O110    O    0.03917   0.35981   0.44132   1.000
    O111    O    0.95011   0.34931   0.46789   1.000
    H112    H    0.05932   0.56176   0.34695   1.000
    O113    O    0.09206   0.49135   0.36319   1.000
    H114    H    0.12595   0.46565   0.34575   1.000
    H115    H    0.93064   0.62810   0.57879   1.000
    C116    C    0.75934   0.39720   0.70448   1.000
    C117    C    0.75782   0.63534   0.45620   1.000
    C118    C    0.75365   0.62859   0.70307   1.000
    C119    C    0.81425   0.40198   0.67225   1.000
    N120    N    0.83693   0.41162   0.61705   1.000
    N121    N    0.84532   0.40416   0.69208   1.000
    N122    N    0.88699   0.41638   0.64837   1.000
    C123    C    0.81252   0.60278   0.46458   1.000
    N124    N    0.84218   0.61993   0.47173   1.000
    N125    N    0.83311   0.54666   0.47946   1.000
    N126    N    0.87539   0.53026   0.49516   1.000
    C127    C    0.80722   0.59509   0.67415   1.000
    N128    N    0.83668   0.61509   0.62089   1.000
    N129    N    0.83120   0.53958   0.69543   1.000
    N130    N    0.87516   0.52554   0.65428   1.000
    N131    N    0.88211   0.42055   0.60308   1.000
    N132    N    0.87810   0.57141   0.60899   1.000
    N133    N    0.88028   0.57438   0.49127   1.000
    C134    C    0.27991   0.31837   0.57887   1.000
    C135    C    0.26593   0.53161   0.37856   1.000
    C136    C    0.27348   0.31419   0.37827   1.000
    C137    C    0.22426   0.35209   0.57391   1.000
    N138    N    0.19363   0.33308   0.57061   1.000
    N139    N    0.19673   0.40551   0.57151   1.000
    N140    N    0.14766   0.37534   0.56507   1.000
    N141    N    0.14896   0.41882   0.56606   1.000
    C142    C    0.20837   0.53463   0.40422   1.000
    N143    N    0.18149   0.52348   0.46111   1.000
    N144    N    0.17847   0.53185   0.38360   1.000
    N145    N    0.13582   0.51500   0.47281   1.000
    N146    N    0.13552   0.51978   0.42508   1.000
    C147    C    0.21953   0.34436   0.41029   1.000
    N148    N    0.19263   0.32140   0.46392   1.000
    N149    N    0.19137   0.39912   0.39104   1.000
    N150    N    0.14796   0.36349   0.47694   1.000
    N151    N    0.14738   0.41012   0.43326   1.000
    H152    H    0.55918   0.50962   0.58511   1.000
    O153    O    0.48920   0.43353   0.52858   1.000
    O154    O    0.54397   0.49509   0.57474   1.000
    O155    O    0.32096   0.56113   0.65894   1.000
    H156    H    0.39615   0.64817   0.51437   1.000
    O157    O    0.40219   0.61237   0.54387   1.000
    S158    S    0.31291   0.53557   0.63382   1.000
    O159    O    0.25793   0.54243   0.64250   1.000
    H160    H    0.37435   0.59571   0.55519   1.000
    O161    O    0.34753   0.55117   0.56961   1.000
    O162    O    0.48431   0.63459   0.46549   1.000
    H163    H    0.43160   0.56961   0.46516   1.000
    Hf164   Hf   0.49232   0.56127   0.52135   1.000
    H165    H    0.51246   0.65156   0.44715   1.000
    O166    O    0.45666   0.53978   0.48632   1.000
    H167    H    0.48947   0.51517   0.36645   1.000
    O168    O    0.51889   0.52063   0.36996   1.000
    Hf169   Hf   0.41433   0.47503   0.57118   1.000
    O170    O    0.35124   0.47184   0.64907   1.000
    O171    O    0.45285   0.50264   0.58664   1.000
    H172    H    0.55233   0.51804   0.33753   1.000
    O173    O    0.55410   0.50271   0.48223   1.000
    O174    O    0.40545   0.46523   0.70088   1.000
    Hf175   Hf   0.52910   0.47369   0.45297   1.000
    H176    H    0.38185   0.46214   0.68708   1.000
    Hf177   Hf   0.49417   0.44756   0.64134   1.000
    H178    H    0.63101   0.43749   0.37480   1.000
    O179    O    0.61167   0.46859   0.38864   1.000
    H180    H    0.63875   0.46415   0.40542   1.000
    Hf181   Hf   0.60977   0.44210   0.52540   1.000
    O182    O    0.46038   0.40212   0.63581   1.000
    O183    O    0.66787   0.45200   0.44058   1.000
    O184    O    0.49349   0.40644   0.72828   1.000
    H185    H    0.43728   0.38036   0.66622   1.000
    O186    O    0.55670   0.39992   0.59172   1.000
    O187    O    0.59158   0.39954   0.49677   1.000
    H188    H    0.45849   0.41840   0.75658   1.000
    Hf189   Hf   0.53540   0.35899   0.57040   1.000
    O190    O    0.53493   0.29539   0.65894   1.000
    H191    H    0.55149   0.29926   0.67783   1.000
    H192    H    0.52596   0.40350   0.73443   1.000
    O193    O    0.68549   0.37668   0.51867   1.000
    H194    H    0.62901   0.37736   0.47425   1.000
    S195    S    0.70908   0.38972   0.45500   1.000
    O196    O    0.69267   0.35976   0.44111   1.000
    O197    O    0.76628   0.38444   0.43149   1.000
    H198    H    0.56512   0.26735   0.64023   1.000
    O199    O    0.59158   0.28474   0.56970   1.000
    H200    H    0.60835   0.26753   0.54185   1.000
    H201    H    0.38688   0.50489   0.69696   1.000
    C202    C    0.64604   0.40318   0.67498   1.000
    N203    N    0.59213   0.40815   0.69415   1.000
    N204    N    0.66845   0.40964   0.62044   1.000
    N205    N    0.62753   0.41906   0.60651   1.000
    C206    C    0.45388   0.59866   0.66940   1.000
    N207    N    0.46100   0.61796   0.61482   1.000
    N208    N    0.45870   0.54485   0.69245   1.000
    N209    N    0.46972   0.53114   0.65101   1.000
    C210    C    0.64448   0.59127   0.48020   1.000
    N211    N    0.59140   0.61352   0.47975   1.000
    N212    N    0.66376   0.53537   0.49607   1.000
    N213    N    0.62273   0.52359   0.50408   1.000
    N214    N    0.58157   0.41856   0.65072   1.000
    N215    N    0.57832   0.57077   0.49512   1.000
    N216    N    0.47093   0.57567   0.60391   1.000
    C217    C    0.55240   0.33454   0.42223   1.000
    N218    N    0.55137   0.38675   0.40153   1.000
    N219    N    0.54736   0.31157   0.47673   1.000
    N220    N    0.54253   0.35071   0.48937   1.000
    C221    C    0.38093   0.49608   0.42839   1.000
    N222    N    0.36091   0.48527   0.48380   1.000
    N223    N    0.43381   0.49529   0.40752   1.000
    N224    N    0.44560   0.48424   0.45041   1.000
    C225    C    0.38918   0.33197   0.59717   1.000
    N226    N    0.36584   0.38404   0.59825   1.000
    N227    N    0.44298   0.30857   0.59511   1.000
    N228    N    0.45315   0.34711   0.59407   1.000
    N229    N    0.54511   0.39566   0.44392   1.000
    N230    N    0.40632   0.39270   0.59598   1.000
    N231    N    0.40166   0.47911   0.49603   1.000
    H232    H    0.55575   0.51816   0.90400   1.000
    O233    O    0.49526   0.44522   0.10887   1.000
    O234    O    0.54427   0.50382   0.94433   1.000
    O235    O    0.62699   0.56902   0.02037   1.000
    H236    H    0.48547   0.65975   0.98990   1.000
    O237    O    0.51179   0.62169   0.99606   1.000
    S238    S    0.59967   0.54521   0.07892   1.000
    O239    O    0.60672   0.55267   0.11900   1.000
    H240    H    0.52217   0.60663   0.03000   1.000
    O241    O    0.53556   0.56268   0.08933   1.000
    O242    O    0.43767   0.64596   0.96102   1.000
    H243    H    0.43125   0.58239   0.08689   1.000
    Hf244   Hf   0.48971   0.57113   0.98003   1.000
    H245    H    0.42266   0.66373   0.93065   1.000
    O246    O    0.45241   0.55227   0.07160   1.000
    H247    H    0.32977   0.52830   0.18180   1.000
    O248    O    0.33541   0.53401   0.14267   1.000
    Hf249   Hf   0.53718   0.48631   0.09970   1.000
    O250    O    0.61482   0.48153   0.09156   1.000
    O251    O    0.55428   0.51224   0.01752   1.000
    H252    H    0.30392   0.53203   0.14160   1.000
    O253    O    0.45076   0.51282   0.01731   1.000
    O254    O    0.66945   0.47384   0.99247   1.000
    Hf255   Hf   0.42006   0.48635   0.10016   1.000
    H256    H    0.65512   0.47064   0.03293   1.000
    Hf257   Hf   0.61047   0.45618   0.97970   1.000
    H258    H    0.34495   0.44817   0.11197   1.000
    O259    O    0.35688   0.48000   0.08574   1.000
    H260    H    0.37427   0.47499   0.04673   1.000
    Hf261   Hf   0.49535   0.45099   0.98205   1.000
    O262    O    0.60347   0.41307   0.06582   1.000
    O263    O    0.40994   0.46216   0.99573   1.000
    O264    O    0.69943   0.41363   0.93826   1.000
    H265    H    0.63384   0.38992   0.08164   1.000
    O266    O    0.56124   0.40994   0.01376   1.000
    O267    O    0.46610   0.41010   0.07065   1.000
    H268    H    0.72586   0.42740   0.93350   1.000
    Hf269   Hf   0.53908   0.36974   0.09768   1.000
    O270    O    0.62979   0.30787   0.07239   1.000
    H271    H    0.64492   0.31077   0.03351   1.000
    H272    H    0.70729   0.40986   0.90276   1.000
    O273    O    0.48965   0.38621   0.97867   1.000
    H274    H    0.44394   0.38807   0.07830   1.000
    S275    S    0.42550   0.39991   0.00393   1.000
    O276    O    0.41106   0.37040   0.06437   1.000
    O277    O    0.40321   0.39481   0.97412   1.000
    H278    H    0.61241   0.27857   0.09326   1.000
    O279    O    0.54163   0.29401   0.12222   1.000
    H280    H    0.51674   0.27565   0.15507   1.000
    H281    H    0.66501   0.51343   0.97478   1.000
    C282    C    0.64624   0.40736   0.84203   1.000
    N283    N    0.66604   0.41388   0.87025   1.000
    N284    N    0.59189   0.41328   0.86843   1.000
    N285    N    0.57844   0.42402   0.91235   1.000
    C286    C    0.64187   0.60420   0.84033   1.000
    N287    N    0.58652   0.62472   0.86587   1.000
    N288    N    0.66416   0.54972   0.86719   1.000
    N289    N    0.62134   0.53696   0.90900   1.000
    C290    C    0.44706   0.59812   0.84033   1.000
    N291    N    0.44708   0.61924   0.87157   1.000
    N292    N    0.46096   0.54252   0.86293   1.000
    N293    N    0.47060   0.52978   0.90785   1.000
    N294    N    0.62293   0.42464   0.91342   1.000
    N295    N    0.46270   0.57623   0.91268   1.000
    N296    N    0.57431   0.58259   0.90809   1.000
    C297    C    0.38774   0.34341   0.24126   1.000
    N298    N    0.36640   0.39731   0.21262   1.000
    N299    N    0.44357   0.32260   0.21754   1.000
    N300    N    0.45641   0.36431   0.17482   1.000
    C301    C    0.39034   0.51015   0.25064   1.000
    N302    N    0.44465   0.50537   0.22560   1.000
    N303    N    0.37176   0.50714   0.21886   1.000
    N304    N    0.41519   0.49958   0.17486   1.000
    C305    C    0.57113   0.33610   0.24320   1.000
    N306    N    0.56446   0.39053   0.21721   1.000
    N307    N    0.57009   0.31543   0.21225   1.000
    N308    N    0.56211   0.35755   0.16759   1.000
    N309    N    0.41002   0.40911   0.17205   1.000
    N310    N    0.55877   0.40315   0.17052   1.000
    N311    N    0.45883   0.49892   0.17850   1.000
    H312    H    0.55091   0.83121   0.59015   1.000
    O313    O    0.48398   0.03551   0.51367   1.000
    O314    O    0.53670   0.87150   0.57573   1.000
    O315    O    0.31101   0.95436   0.64122   1.000
    H316    H    0.39381   0.92251   0.72923   1.000
    O317    O    0.39876   0.92809   0.69167   1.000
    S318    S    0.30525   0.01235   0.61519   1.000
    O319    O    0.25087   0.05411   0.62172   1.000
    H320    H    0.36986   0.96265   0.67634   1.000
    O321    O    0.34293   0.02231   0.63097   1.000
    O322    O    0.48339   0.89202   0.71613   1.000
    H323    H    0.43249   0.01524   0.65047   1.000
    Hf324   Hf   0.48863   0.90914   0.64134   1.000
    H325    H    0.51109   0.86160   0.73402   1.000
    O326    O    0.45646   0.99965   0.62056   1.000
    H327    H    0.49883   0.10350   0.59717   1.000
    O328    O    0.52545   0.06397   0.60316   1.000
    Hf329   Hf   0.40874   0.02837   0.55511   1.000
    O330    O    0.34184   0.02249   0.55168   1.000
    O331    O    0.44615   0.94630   0.58230   1.000
    H332    H    0.56138   0.06183   0.59916   1.000
    O333    O    0.55159   0.94316   0.58118   1.000
    O334    O    0.39266   0.92383   0.54387   1.000
    Hf335   Hf   0.52921   0.02507   0.55309   1.000
    H336    H    0.36980   0.96410   0.54197   1.000
    Hf337   Hf   0.48343   0.90700   0.52743   1.000
    H338    H    0.63208   0.03514   0.51090   1.000
    O339    O    0.61466   0.00966   0.54433   1.000
    H340    H    0.64048   0.97015   0.53982   1.000
    Hf341   Hf   0.60314   0.90602   0.52073   1.000
    O342    O    0.44875   0.99370   0.48347   1.000
    O343    O    0.66629   0.91903   0.52817   1.000
    O344    O    0.47757   0.86319   0.48871   1.000
    H345    H    0.42546   0.01007   0.46049   1.000
    O346    O    0.54699   0.93830   0.47929   1.000
    O347    O    0.58629   0.99517   0.47801   1.000
    H348    H    0.44151   0.85938   0.50264   1.000
    Hf349   Hf   0.52602   0.02364   0.43901   1.000
    O350    O    0.52113   0.99931   0.37823   1.000
    H351    H    0.54283   0.96061   0.38058   1.000
    H352    H    0.50857   0.82651   0.48731   1.000
    O353    O    0.67678   0.90124   0.45442   1.000
    H354    H    0.62400   0.00127   0.45471   1.000
    S355    S    0.70403   0.92588   0.46566   1.000
    O356    O    0.68780   0.98633   0.43537   1.000
    O357    O    0.76188   0.89561   0.45905   1.000
    H358    H    0.54608   0.02083   0.34794   1.000
    O359    O    0.57331   0.04966   0.36277   1.000
    H360    H    0.58307   0.08272   0.34455   1.000
    H361    H    0.37496   0.90484   0.58284   1.000
    C362    C    0.63311   0.76108   0.48504   1.000
    N363    N    0.57823   0.79057   0.49132   1.000
    N364    N    0.65565   0.78581   0.49214   1.000
    N365    N    0.61484   0.83050   0.50239   1.000
    C366    C    0.44391   0.76931   0.67427   1.000
    N367    N    0.45315   0.79368   0.69572   1.000
    N368    N    0.44604   0.79920   0.62101   1.000
    N369    N    0.45784   0.84131   0.60982   1.000
    C370    C    0.64391   0.77170   0.67060   1.000
    N371    N    0.59052   0.80245   0.69150   1.000
    N372    N    0.66278   0.79361   0.61486   1.000
    N373    N    0.62018   0.83703   0.60184   1.000
    N374    N    0.56801   0.83333   0.50243   1.000
    N375    N    0.57625   0.84221   0.64820   1.000
    N376    N    0.46200   0.83805   0.65518   1.000
    C377    C    0.55838   0.17025   0.41335   1.000
    N378    N    0.55752   0.13970   0.46624   1.000
    N379    N    0.54746   0.14695   0.39219   1.000
    N380    N    0.53920   0.10201   0.43269   1.000
    C381    C    0.38837   0.17722   0.57387   1.000
    N382    N    0.36338   0.15287   0.56961   1.000
    N383    N    0.44155   0.14411   0.57230   1.000
    N384    N    0.44870   0.10018   0.56585   1.000
    C385    C    0.38100   0.17106   0.40504   1.000
    N386    N    0.35883   0.14623   0.45983   1.000
    N387    N    0.43378   0.13913   0.38443   1.000
    N388    N    0.44440   0.09493   0.42702   1.000
    N389    N    0.54536   0.09772   0.47694   1.000
    N390    N    0.39887   0.09909   0.47268   1.000
    N391    N    0.40174   0.10514   0.56478   1.000
    O392    O    0.27541   0.60721   0.25142   1.000
    O393    O    0.24591   0.54123   0.27720   1.000
    O394    O    0.19458   0.51880   0.49822   1.000
    O395    O    0.27416   0.57217   0.46673   1.000
    O396    O    0.56905   0.21411   0.27720   1.000
    O397    O    0.64870   0.18439   0.28948   1.000
    O398    O    0.60683   0.39710   0.28543   1.000
    O399    O    0.51561   0.42670   0.31071   1.000
    O400    O    0.29829   0.25906   0.50479   1.000
    O401    O    0.25181   0.22236   0.59098   1.000
    O402    O    0.44747   0.19073   0.63833   1.000
    O403    O    0.48197   0.22507   0.54809   1.000
    O404    O    0.24879   0.41912   0.27216   1.000
    O405    O    0.29072   0.42863   0.30947   1.000
    O406    O    0.43205   0.21270   0.25469   1.000
    O407    O    0.47438   0.21610   0.29621   1.000
    O408    O    0.77646   0.72307   0.46652   1.000
    O409    O    0.74919   0.76251   0.39393   1.000
    O410    O    0.81034   0.58740   0.38017   1.000
    O411    O    0.75837   0.53693   0.42112   1.000
    O412    O    0.38598   0.74078   0.81298   1.000
    O413    O    0.47733   0.70759   0.79050   1.000
    O414    O    0.49819   0.70766   0.58238   1.000
    O415    O    0.40742   0.73843   0.60238   1.000
    O416    O    0.78423   0.36363   0.81422   1.000
    O417    O    0.75112   0.45384   0.77579   1.000
    O418    O    0.55542   0.45051   0.77806   1.000
    O419    O    0.58193   0.35978   0.81277   1.000
    O420    O    0.78257   0.73366   0.60221   1.000
    O421    O    0.74572   0.69804   0.58507   1.000
    O422    O    0.55310   0.72908   0.78930   1.000
    O423    O    0.60204   0.74504   0.81294   1.000
