# CIF file generated by openbabel 3.0.0, see http://openbabel.sf.net
data_I
_chemical_name_common 'D:\! BYU CALCULATION\Acidic MOF Patent\Periodic_11_00\mof808_cellopt_pbesol-pos-final.pdb'
_cell_length_a 25.226
_cell_length_b 25.109
_cell_length_c 25.053
_cell_angle_alpha 60.03
_cell_angle_beta 59.85
_cell_angle_gamma 58.74
loop_
    _atom_site_label
    _atom_site_type_symbol
    _atom_site_fract_x
    _atom_site_fract_y
    _atom_site_fract_z
    _atom_site_occupancy
    H0      H    0.22768   0.34220   0.84977   1.000
    H1      H    0.23376   0.33613   0.57105   1.000
    H2      H    0.22363   0.61655   0.57778   1.000
    H3      H    0.50699   0.33613   0.58061   1.000
    H4      H    0.07437   0.84258   0.42486   1.000
    H5      H    0.31130   0.82306   0.42047   1.000
    H6      H    0.10392   0.32938   0.28140   1.000
    N7      N    0.25147   0.21948   0.25579   1.000
    H8      H    0.94237   0.04828   0.55666   1.000
    H9      H    0.93865   0.04639   0.44379   1.000
    N10     N    0.91430   0.36397   0.45827   1.000
    H11     H    0.22464   0.04008   0.27560   1.000
    H12     H    0.93962   0.21918   0.56149   1.000
    H13     H    0.10770   0.04807   0.26852   1.000
    H14     H    0.93155   0.32964   0.28360   1.000
    H15     H    0.22991   0.04158   0.44452   1.000
    N16     N    0.12078   0.02367   0.58568   1.000
    N17     N    0.91450   0.22818   0.25857   1.000
    N18     N    0.24340   0.19484   0.77709   1.000
    H19     H    0.12036   0.35621   0.75470   1.000
    H20     H    0.41027   0.52497   0.46461   1.000
    N21     N    0.43127   0.53775   0.58197   1.000
    H22     H    0.42113   0.22082   0.58875   1.000
    H23     H    0.11018   0.52950   0.76192   1.000
    N24     N    0.43627   0.33781   0.44179   1.000
    H25     H    0.24132   0.53133   0.76089   1.000
    H26     H    0.41933   0.22558   0.75923   1.000
    N27     N    0.09816   0.54609   0.57524   1.000
    H28     H    0.24643   0.51907   0.45642   1.000
    H29     H    0.41481   0.35537   0.76758   1.000
    C30     C    0.05813   0.33634   0.39945   1.000
    C31     C    0.22730   0.16024   0.19775   1.000
    C32     C    0.86300   0.17124   0.56193   1.000
    C33     C    0.06216   0.97004   0.39403   1.000
    C34     C    0.01915   0.34056   0.36696   1.000
    C35     C    0.23188   0.12664   0.26477   1.000
    C36     C    0.93143   0.13656   0.56339   1.000
    C37     C    0.02636   0.03865   0.35925   1.000
    C38     C    0.05215   0.33448   0.30447   1.000
    C39     C    0.23696   0.15765   0.29511   1.000
    C40     C    0.96469   0.07222   0.56183   1.000
    C41     C    0.96167   0.07089   0.39252   1.000
    C42     C    0.85344   0.33921   0.40135   1.000
    C43     C    0.22594   0.96429   0.39925   1.000
    C44     C    0.06101   0.16971   0.56461   1.000
    C45     C    0.05772   0.16868   0.19487   1.000
    C46     C    0.92107   0.34182   0.36750   1.000
    C47     C    0.22953   0.03186   0.36364   1.000
    C48     C    0.02694   0.13297   0.56885   1.000
    C49     C    0.02128   0.13514   0.26228   1.000
    C50     C    0.05643   0.32817   0.20555   1.000
    C51     C    0.23057   0.16326   0.39715   1.000
    C52     C    0.06050   0.96960   0.56178   1.000
    C53     C    0.85847   0.16817   0.40037   1.000
    C54     C    0.02052   0.33334   0.27282   1.000
    C55     C    0.23421   0.12823   0.36057   1.000
    C56     C    0.02733   0.03677   0.56666   1.000
    C57     C    0.92550   0.13427   0.36135   1.000
    C58     C    0.95272   0.34680   0.39696   1.000
    C59     C    0.22828   0.06395   0.29955   1.000
    C60     C    0.96323   0.16719   0.56505   1.000
    C61     C    0.05629   0.07141   0.29496   1.000
    C62     C    0.95577   0.33518   0.30545   1.000
    C63     C    0.23154   0.06467   0.39374   1.000
    C64     C    0.05748   0.06665   0.57246   1.000
    C65     C    0.95515   0.16530   0.29535   1.000
    C66     C    0.29927   0.22158   0.63470   1.000
    C67     C    0.11757   0.40383   0.83352   1.000
    C68     C    0.49367   0.40334   0.46271   1.000
    C69     C    0.28885   0.60349   0.63953   1.000
    C70     C    0.33472   0.21443   0.67275   1.000
    C71     C    0.11217   0.44015   0.76660   1.000
    C72     C    0.42775   0.43654   0.45447   1.000
    C73     C    0.32686   0.53717   0.67587   1.000
    C74     C    0.30446   0.21071   0.73885   1.000
    C75     C    0.11453   0.40841   0.73250   1.000
    C76     C    0.38974   0.50016   0.45827   1.000
    C77     C    0.39331   0.50320   0.64704   1.000
    C78     C    0.49572   0.22529   0.63587   1.000
    C79     C    0.11035   0.60731   0.64095   1.000
    C80     C    0.29798   0.39723   0.45715   1.000
    C81     C    0.28723   0.40595   0.83801   1.000
    C82     C    0.42939   0.21955   0.67134   1.000
    C83     C    0.10637   0.54028   0.67304   1.000
    C84     C    0.33416   0.43345   0.45066   1.000
    C85     C    0.32480   0.44056   0.77265   1.000
    C86     C    0.29884   0.22419   0.83606   1.000
    C87     C    0.12008   0.40382   0.63261   1.000
    C88     C    0.28615   0.59799   0.46515   1.000
    C89     C    0.49201   0.39650   0.64763   1.000
    C90     C    0.33416   0.21612   0.77011   1.000
    C91     C    0.11165   0.44191   0.66895   1.000
    C92     C    0.32524   0.53135   0.45705   1.000
    C93     C    0.42498   0.43739   0.67968   1.000
    C94     C    0.39763   0.21788   0.64002   1.000
    C95     C    0.10915   0.50537   0.73636   1.000
    C96     C    0.39953   0.40413   0.44915   1.000
    C97     C    0.29333   0.50526   0.73885   1.000
    C98     C    0.39657   0.22035   0.73558   1.000
    C99     C    0.10602   0.50819   0.64046   1.000
    C100    C    0.29772   0.49758   0.45388   1.000
    C101    C    0.39012   0.40686   0.74270   1.000
    O102    O    0.02720   0.34226   0.45642   1.000
    O103    O    0.22747   0.12785   0.17165   1.000
    O104    O    0.83342   0.22895   0.56568   1.000
    O105    O    0.11974   0.93996   0.36213   1.000
    O106    O    0.31785   0.62604   0.57924   1.000
    O107    O    0.51319   0.43505   0.47203   1.000
    O108    O    0.12612   0.34296   0.85660   1.000
    O109    O    0.23866   0.23150   0.66256   1.000
    O110    O    0.21893   0.74983   0.44871   1.000
    O111    O    0.14892   0.25361   0.48325   1.000
    O112    O    0.14513   0.25222   0.10487   1.000
    O113    O    0.76443   0.25563   0.48920   1.000
    O114    O    0.14564   0.87218   0.48466   1.000
    O115    O    0.82736   0.33983   0.36876   1.000
    O116    O    0.22968   0.93537   0.45705   1.000
    O117    O    0.11955   0.13727   0.56510   1.000
    O118    O    0.02524   0.22676   0.16536   1.000
    O119    O    0.11498   0.32737   0.17858   1.000
    O120    O    0.23233   0.22101   0.36608   1.000
    O121    O    0.02644   0.94772   0.55973   1.000
    O122    O    0.83383   0.13360   0.45822   1.000
    O123    O    0.51249   0.33542   0.67704   1.000
    O124    O    0.22604   0.62560   0.46749   1.000
    O125    O    0.12679   0.43251   0.57236   1.000
    O126    O    0.32965   0.23112   0.85923   1.000
    O127    O    0.22633   0.43652   0.85986   1.000
    O128    O    0.32791   0.33621   0.46310   1.000
    O129    O    0.11991   0.62740   0.67148   1.000
    O130    O    0.52042   0.23242   0.57534   1.000
    O131    O    0.22362   0.75246   0.56890   1.000
    O132    O    0.09959   0.75988   0.56788   1.000
    O133    O    0.33169   0.22181   0.57558   1.000
    O134    O    0.11553   0.43632   0.86103   1.000
    O135    O    0.52383   0.34441   0.46310   1.000
    O136    O    0.22953   0.62992   0.67148   1.000
    O137    O    0.03104   0.94670   0.45374   1.000
    O138    O    0.83933   0.13954   0.55812   1.000
    O139    O    0.22254   0.22009   0.17209   1.000
    O140    O    0.11860   0.32549   0.36915   1.000
    O141    O    0.10801   0.82553   0.61041   1.000
    O142    O    0.21820   0.32018   0.55524   1.000
    O143    O    0.21233   0.32619   0.89728   1.000
    O144    O    0.55479   0.32136   0.56334   1.000
    O145    O    0.20748   0.66451   0.56129   1.000
    O146    O    0.52145   0.22455   0.66914   1.000
    O147    O    0.10757   0.63807   0.58280   1.000
    O148    O    0.23848   0.42982   0.46052   1.000
    O149    O    0.31959   0.34629   0.86552   1.000
    O150    O    0.24001   0.22774   0.86274   1.000
    O151    O    0.12301   0.34459   0.66495   1.000
    O152    O    0.31595   0.62130   0.47154   1.000
    O153    O    0.52213   0.42672   0.59012   1.000
    O154    O    0.83228   0.22892   0.37369   1.000
    O155    O    0.12012   0.94038   0.55880   1.000
    O156    O    0.22470   0.13285   0.45725   1.000
    O157    O    0.02589   0.32552   0.17941   1.000
    O158    O    0.11818   0.13757   0.17311   1.000
    O159    O    0.02935   0.23035   0.55924   1.000
    O160    O    0.21897   0.94068   0.36979   1.000
    O161    O    0.82755   0.33524   0.46110   1.000
    O162    O    0.10395   0.82194   0.44974   1.000
    O163    O    0.26786   0.81558   0.44783   1.000
    Zr164   Zr   0.19848   0.85164   0.39593   1.000
    Zr165   Zr   0.19987   0.85197   0.53490   1.000
    Zr166   Zr   0.05591   0.86122   0.53681   1.000
    Zr167   Zr   0.14647   0.71542   0.63875   1.000
    Zr168   Zr   0.14402   0.71468   0.50090   1.000
    Zr169   Zr   0.28722   0.70792   0.49578   1.000
    H170    H    0.08667   0.84024   0.64826   1.000
    O171    O    0.36729   0.72052   0.49944   1.000
    O172    O    0.37363   0.70690   0.41008   1.000
    S173    S    0.40854   0.73090   0.42476   1.000
    O174    O    0.39179   0.80303   0.39159   1.000
    O175    O    0.47715   0.69146   0.41427   1.000
    O176    O    0.87137   0.91264   0.60256   1.000
    S177    S    0.92725   0.85123   0.60529   1.000
    O178    O    0.97422   0.85188   0.62870   1.000
    O179    O    0.97631   0.85163   0.53363   1.000
    O180    O    0.91601   0.78970   0.64056   1.000
    O181    O    0.30441   0.82369   0.53051   1.000
    H182    H    0.32376   0.85658   0.49490   1.000
    O183    O    0.13217   0.72437   0.72085   1.000
    H184    H    0.16694   0.69890   0.74021   1.000
    H185    H    0.33513   0.77970   0.51925   1.000
    O186    O    0.20146   0.85768   0.62363   1.000
    H187    H    0.24807   0.84542   0.61568   1.000
    O188    O    0.03730   0.73922   0.70031   1.000
    H189    H    0.00645   0.78153   0.67846   1.000
    O190    O    0.03752   0.74111   0.50973   1.000
    H191    H    0.01962   0.70751   0.54632   1.000
    O192    O    0.14289   0.70987   0.40984   1.000
    H193    H    0.17157   0.66401   0.41071   1.000
    H194    H    0.09830   0.71521   0.41774   1.000
    O195    O    0.27943   0.84029   0.31823   1.000
    O196    O    0.18768   0.82377   0.32560   1.000
    H197    H    0.18171   0.78152   0.34413   1.000
    H198    H    0.23472   0.81696   0.29906   1.000
    H199    H    0.00781   0.78405   0.52134   1.000
    H200    H    0.17662   0.89818   0.63602   1.000
    H201    H    0.32202   0.84034   0.30838   1.000
    H202    H    0.03776   0.74452   0.73636   1.000
    O203    O    0.64097   0.41853   0.64836   1.000
    H204    H    0.62833   0.23534   0.74348   1.000
    O205    O    0.62045   0.27742   0.70831   1.000
    S206    S    0.71017   0.38439   0.61978   1.000
    O207    O    0.75827   0.39117   0.62870   1.000
    H208    H    0.65967   0.29155   0.68714   1.000
    O209    O    0.72418   0.30905   0.63919   1.000
    O210    O    0.61334   0.17459   0.72231   1.000
    H211    H    0.73152   0.18136   0.65202   1.000
    Zr212   Zr   0.60417   0.25385   0.64202   1.000
    H213    H    0.59135   0.14545   0.73538   1.000
    O214    O    0.71584   0.21217   0.61485   1.000
    H215    H    0.80968   0.04866   0.62305   1.000
    O216    O    0.76496   0.07120   0.62109   1.000
    Zr217   Zr   0.74529   0.30669   0.54432   1.000
    O218    O    0.72478   0.40206   0.54446   1.000
    O219    O    0.64535   0.32867   0.57378   1.000
    H220    H    0.75731   0.04240   0.61183   1.000
    O221    O    0.64796   0.20802   0.57100   1.000
    O222    O    0.61691   0.47293   0.51788   1.000
    Zr223   Zr   0.74862   0.17021   0.53695   1.000
    H224    H    0.66030   0.44924   0.52807   1.000
    Zr225   Zr   0.59996   0.39703   0.50720   1.000
    H226    H    0.76457   0.07687   0.49315   1.000
    O227    O    0.73097   0.09177   0.53061   1.000
    H228    H    0.68689   0.11449   0.52051   1.000
    Zr229   Zr   0.60522   0.26050   0.49681   1.000
    O230    O    0.70566   0.38392   0.45725   1.000
    O231    O    0.62806   0.15911   0.50086   1.000
    O232    O    0.59200   0.49473   0.41705   1.000
    H233    H    0.72372   0.41893   0.43335   1.000
    O234    O    0.64156   0.33703   0.45374   1.000
    O235    O    0.71366   0.22294   0.45086   1.000
    H236    H    0.59234   0.52736   0.42774   1.000
    Zr237   Zr   0.74239   0.31225   0.40188   1.000
    O238    O    0.71088   0.42180   0.33199   1.000
    H239    H    0.66720   0.45149   0.35081   1.000
    H240    H    0.54728   0.50930   0.41725   1.000
    O241    O    0.61308   0.25385   0.41037   1.000
    H242    H    0.72572   0.19688   0.42291   1.000
    S243    S    0.64323   0.17863   0.42559   1.000
    O244    O    0.71584   0.15884   0.39486   1.000
    O245    O    0.61211   0.15405   0.41266   1.000
    H246    H    0.70662   0.40419   0.30686   1.000
    O247    O    0.73356   0.31923   0.32335   1.000
    H248    H    0.73777   0.28517   0.31179   1.000
    H249    H    0.58353   0.48576   0.55666   1.000
    O250    O    0.31857   0.04387   0.63475   1.000
    H251    H    0.14261   0.14947   0.73733   1.000
    O252    O    0.18090   0.15166   0.69763   1.000
    S253    S    0.28321   0.04177   0.60505   1.000
    O254    O    0.29061   0.97896   0.60949   1.000
    H255    H    0.19284   0.11883   0.67773   1.000
    O256    O    0.20818   0.08487   0.62787   1.000
    O257    O    0.07618   0.24953   0.71611   1.000
    H258    H    0.08215   0.19757   0.64787   1.000
    Zr259   Zr   0.15302   0.25993   0.63539   1.000
    H260    H    0.04981   0.28115   0.73972   1.000
    O261    O    0.11074   0.21981   0.60870   1.000
    H262    H    0.94695   0.28889   0.62544   1.000
    O263    O    0.97108   0.31046   0.62387   1.000
    Zr264   Zr   0.20161   0.16529   0.53646   1.000
    O265    O    0.29890   0.08791   0.53115   1.000
    O266    O    0.22758   0.21122   0.56446   1.000
    H267    H    0.94430   0.35789   0.61446   1.000
    O268    O    0.10553   0.33588   0.56524   1.000
    O269    O    0.36811   0.14911   0.50593   1.000
    Zr270   Zr   0.06515   0.30993   0.53295   1.000
    H271    H    0.34405   0.11990   0.51622   1.000
    Zr272   Zr   0.29325   0.25486   0.49627   1.000
    H273    H    0.96863   0.43360   0.49564   1.000
    O274    O    0.98689   0.41413   0.53061   1.000
    H275    H    0.01011   0.44531   0.51900   1.000
    Zr276   Zr   0.15688   0.39863   0.49086   1.000
    O277    O    0.27715   0.21253   0.44793   1.000
    O278    O    0.05493   0.47676   0.49886   1.000
    O279    O    0.38978   0.25256   0.40232   1.000
    H280    H    0.31112   0.18363   0.42183   1.000
    O281    O    0.23205   0.32882   0.44408   1.000
    O282    O    0.11702   0.37722   0.44496   1.000
    H283    H    0.42011   0.20650   0.41101   1.000
    Zr284   Zr   0.20395   0.30556   0.39369   1.000
    O285    O    0.31272   0.29097   0.32345   1.000
    H286    H    0.34326   0.28806   0.33906   1.000
    H287    H    0.41283   0.27908   0.39501   1.000
    O288    O    0.14835   0.48641   0.40745   1.000
    H289    H    0.09035   0.42061   0.41862   1.000
    S290    S    0.07318   0.51875   0.42427   1.000
    O291    O    0.05201   0.49974   0.39271   1.000
    O292    O    0.04908   0.58794   0.41398   1.000
    H293    H    0.29993   0.33525   0.29126   1.000
    O294    O    0.20854   0.38260   0.31321   1.000
    H295    H    0.17454   0.41978   0.29535   1.000
    H296    H    0.37968   0.13140   0.54510   1.000
    O297    O    0.30883   0.39829   0.98591   1.000
    H298    H    0.12496   0.50615   0.97391   1.000
    O299    O    0.16723   0.47010   0.96630   1.000
    S300    S    0.27640   0.37348   0.05580   1.000
    O301    O    0.28836   0.38321   0.09995   1.000
    H302    H    0.18155   0.44716   0.00619   1.000
    O303    O    0.20040   0.39728   0.07068   1.000
    O304    O    0.06460   0.48875   0.95454   1.000
    H305    H    0.07058   0.41739   0.07273   1.000
    Zr306   Zr   0.14415   0.40700   0.94591   1.000
    H307    H    0.03659   0.50664   0.92898   1.000
    O308    O    0.10218   0.37956   0.05746   1.000
    H309    H    0.94559   0.38736   0.14594   1.000
    O310    O    0.96366   0.39434   0.09882   1.000
    Zr311   Zr   0.19437   0.30468   0.09131   1.000
    O312    O    0.29127   0.29780   0.07385   1.000
    O313    O    0.21841   0.33472   0.99054   1.000
    H314    H    0.93665   0.38552   0.08844   1.000
    O315    O    0.09934   0.33797   0.98586   1.000
    O316    O    0.36211   0.27327   0.96610   1.000
    Zr317   Zr   0.06059   0.30486   0.08522   1.000
    H318    H    0.33850   0.27878   0.01205   1.000
    Zr319   Zr   0.28618   0.26674   0.94684   1.000
    H320    H    0.96744   0.26818   0.09483   1.000
    O321    O    0.98187   0.30550   0.06268   1.000
    H322    H    0.00535   0.29558   0.01810   1.000
    Zr323   Zr   0.15250   0.26316   0.94269   1.000
    O324    O    0.27227   0.21490   0.05234   1.000
    O325    O    0.04983   0.27507   0.96088   1.000
    O326    O    0.38083   0.16732   0.94713   1.000
    H327    H    0.30645   0.19009   0.07253   1.000
    O328    O    0.22794   0.21473   0.98347   1.000
    O329    O    0.11358   0.21768   0.04995   1.000
    H330    H    0.41512   0.17563   0.94664   1.000
    Zr331   Zr   0.20133   0.16284   0.08380   1.000
    O332    O    0.30946   0.08805   0.05756   1.000
    H333    H    0.33933   0.10643   0.01537   1.000
    H334    H    0.39035   0.17004   0.90250   1.000
    O335    O    0.14356   0.18126   0.94625   1.000
    H336    H    0.08661   0.19249   0.05961   1.000
    S337    S    0.06822   0.20019   0.97405   1.000
    O338    O    0.04884   0.16833   0.04614   1.000
    O339    O    0.04268   0.19124   0.94049   1.000
    H340    H    0.29317   0.06393   0.05083   1.000
    O341    O    0.20666   0.08643   0.07268   1.000
    H342    H    0.17293   0.08011   0.07048   1.000
    H343    H    0.36604   0.31688   0.93884   1.000
    O344    O    0.45563   0.33682   0.38613   1.000
    O345    O    0.44067   0.28951   0.49100   1.000
    O346    O    0.04127   0.57543   0.57515   1.000
    O347    O    0.14804   0.54707   0.52739   1.000
    O348    O    0.45834   0.56574   0.58344   1.000
    O349    O    0.43420   0.53417   0.53339   1.000
    O350    O    0.25532   0.13517   0.79860   1.000
    O351    O    0.18964   0.23928   0.78338   1.000
    O352    O    0.17233   0.02244   0.54090   1.000
    O353    O    0.11470   0.98820   0.64358   1.000
    O354    O    0.88771   0.42354   0.44949   1.000
    O355    O    0.91325   0.31978   0.51090   1.000
    O356    O    0.91282   0.28064   0.25214   1.000
    O357    O    0.88630   0.22106   0.23555   1.000
    O358    O    0.31058   0.20988   0.22853   1.000
    O359    O    0.20606   0.27250   0.25394   1.000
