# CIF file generated by openbabel 3.0.0, see http://openbabel.sf.net
data_I
_chemical_name_common 'D:\! BYU CALCULATION\Acidic MOF Patent\Periodic_07_10_Ce\mof808_cellopt_pbesol-pos-final.pdb'
_cell_length_a 30.468
_cell_length_b 30.847
_cell_length_c 30.521
_cell_angle_alpha 60.15
_cell_angle_beta 60.72
_cell_angle_gamma 59.6
_space_group_name_H-M_alt 'P 1'
_space_group_name_Hall 'P 1'
loop_
    _symmetry_equiv_pos_as_xyz
    x,y,z
loop_
    _atom_site_label
    _atom_site_type_symbol
    _atom_site_fract_x
    _atom_site_fract_y
    _atom_site_fract_z
    _atom_site_occupancy
    H0      H    0.82228   0.51181   0.54971   1.000
    H1      H    0.37868   0.48564   0.29045   1.000
    N2      N    0.51546   0.38931   0.27026   1.000
    N3      N    0.23993   0.24911   0.51646   1.000
    H4      H    0.23601   0.24154   0.40222   1.000
    N5      N    0.21400   0.56304   0.40122   1.000
    N6      N    0.55071   0.21828   0.25695   1.000
    H7      H    0.24252   0.37793   0.55119   1.000
    N8      N    0.38462   0.23073   0.25006   1.000
    N9      N    0.22527   0.56012   0.24433   1.000
    H10     H    0.50185   0.23793   0.41668   1.000
    N11     N    0.39496   0.22564   0.55095   1.000
    N12     N    0.23550   0.40043   0.26054   1.000
    N13     N    0.54880   0.40599   0.74561   1.000
    H14     H    0.40317   0.56594   0.73310   1.000
    N15     N    0.70466   0.72802   0.40298   1.000
    N16     N    0.70570   0.70841   0.57967   1.000
    H17     H    0.70306   0.39822   0.60114   1.000
    N18     N    0.38916   0.71591   0.74676   1.000
    N19     N    0.72226   0.57793   0.37884   1.000
    N20     N    0.55437   0.72261   0.74796   1.000
    N21     N    0.71174   0.40838   0.74361   1.000
    N22     N    0.40527   0.71255   0.57831   1.000
    H23     H    0.55472   0.68587   0.45846   1.000
    H24     H    0.69727   0.56519   0.73625   1.000
    C25     C    0.30570   0.51145   0.35147   1.000
    C26     C    0.52572   0.30688   0.26269   1.000
    C27     C    0.30684   0.23353   0.33367   1.000
    C28     C    0.33476   0.50256   0.30252   1.000
    C29     C    0.51749   0.33307   0.29443   1.000
    C30     C    0.26457   0.26753   0.53259   1.000
    C31     C    0.25567   0.26208   0.36083   1.000
    C32     C    0.51860   0.22820   0.34394   1.000
    C33     C    0.31508   0.30888   0.55031   1.000
    C34     C    0.30999   0.31552   0.25604   1.000
    C35     C    0.30872   0.51695   0.26755   1.000
    C36     C    0.51178   0.30799   0.34892   1.000
    C37     C    0.31606   0.23560   0.53773   1.000
    C38     C    0.24889   0.53085   0.36749   1.000
    C39     C    0.52974   0.25289   0.28850   1.000
    C40     C    0.26283   0.33818   0.54740   1.000
    C41     C    0.33216   0.26047   0.28109   1.000
    C42     C    0.25243   0.53408   0.28507   1.000
    C43     C    0.51004   0.25633   0.37346   1.000
    C44     C    0.34030   0.25782   0.54641   1.000
    C45     C    0.25871   0.34215   0.28523   1.000
    C46     C    0.63020   0.40095   0.66813   1.000
    C47     C    0.39640   0.63420   0.74246   1.000
    C48     C    0.62876   0.71651   0.66319   1.000
    C49     C    0.60544   0.40306   0.71995   1.000
    C50     C    0.39986   0.60793   0.71378   1.000
    C51     C    0.67836   0.69012   0.42018   1.000
    C52     C    0.67935   0.68537   0.63738   1.000
    C53     C    0.39572   0.71498   0.66260   1.000
    C54     C    0.62995   0.62739   0.43010   1.000
    C55     C    0.62809   0.63635   0.74389   1.000
    C56     C    0.63168   0.40423   0.74636   1.000
    C57     C    0.40151   0.63317   0.66029   1.000
    C58     C    0.62190   0.70856   0.43388   1.000
    C59     C    0.68348   0.39895   0.64208   1.000
    C60     C    0.39336   0.68772   0.71649   1.000
    C61     C    0.68595   0.61293   0.41246   1.000
    C62     C    0.60533   0.69080   0.71740   1.000
    C63     C    0.68471   0.40349   0.71788   1.000
    C64     C    0.39995   0.68614   0.63575   1.000
    C65     C    0.59849   0.67490   0.44277   1.000
    C66     C    0.67890   0.60773   0.71641   1.000
    O67     O    0.03671   0.45163   0.47328   1.000
    O68     O    0.86129   0.50192   0.53482   1.000
    O69     O    0.93794   0.59246   0.60237   1.000
    H70     H    0.92463   0.44587   0.69307   1.000
    O71     O    0.92310   0.47178   0.65790   1.000
    S72     S    0.99447   0.56608   0.57875   1.000
    O73     O    0.03514   0.57328   0.58321   1.000
    H74     H    0.95262   0.48681   0.64109   1.000
    O75     O    0.00557   0.50449   0.59779   1.000
    O76     O    0.89249   0.38882   0.67873   1.000
    H77     H    0.01863   0.38970   0.61046   1.000
    Ce78    Ce   0.90476   0.44723   0.60532   1.000
    H79     H    0.86456   0.37246   0.69964   1.000
    O80     O    0.00189   0.41128   0.58234   1.000
    H81     H    0.11950   0.28589   0.55581   1.000
    O82     O    0.08284   0.28711   0.56310   1.000
    Ce83    Ce   0.02501   0.49522   0.51904   1.000
    O84     O    0.00479   0.57834   0.51821   1.000
    O85     O    0.93987   0.51021   0.54143   1.000
    H86     H    0.08605   0.25349   0.56417   1.000
    O87     O    0.94438   0.40764   0.54087   1.000
    O88     O    0.90873   0.63006   0.50510   1.000
    Ce89    Ce   0.02908   0.37396   0.51466   1.000
    H90     H    0.94621   0.61614   0.50662   1.000
    Ce91    Ce   0.89693   0.56982   0.48371   1.000
    H92     H    0.04013   0.29332   0.47770   1.000
    O93     O    0.01588   0.30618   0.50805   1.000
    H94     H    0.97852   0.32222   0.50391   1.000
    Ce95    Ce   0.90218   0.44926   0.47917   1.000
    O96     O    0.98843   0.56031   0.44149   1.000
    O97     O    0.92568   0.35909   0.48865   1.000
    O98     O    0.84959   0.65931   0.43866   1.000
    H99     H    0.00151   0.59027   0.41990   1.000
    O100    O    0.93465   0.51590   0.43874   1.000
    O101    O    0.99782   0.41846   0.43755   1.000
    H102    H    0.84196   0.68965   0.44711   1.000
    Ce103   Ce   0.02383   0.49433   0.39469   1.000
    O104    O    0.99162   0.58621   0.32945   1.000
    H105    H    0.95386   0.60273   0.33164   1.000
    H106    H    0.81855   0.66463   0.43014   1.000
    O107    O    0.90952   0.43221   0.41261   1.000
    H108    H    0.00541   0.39531   0.41799   1.000
    S109    S    0.93608   0.37037   0.42902   1.000
    O110    O    0.99472   0.35785   0.40250   1.000
    O111    O    0.91012   0.34602   0.42381   1.000
    H112    H    0.01046   0.57192   0.29977   1.000
    O113    O    0.04992   0.49363   0.31738   1.000
    H114    H    0.08283   0.47052   0.29862   1.000
    H115    H    0.88607   0.63406   0.54027   1.000
    C116    C    0.71133   0.40066   0.66618   1.000
    C117    C    0.71051   0.63929   0.41616   1.000
    C118    C    0.70558   0.63189   0.66335   1.000
    C119    C    0.76467   0.40417   0.63543   1.000
    N120    N    0.78596   0.41303   0.58238   1.000
    N121    N    0.79645   0.40435   0.65431   1.000
    N122    N    0.83739   0.41459   0.61189   1.000
    C123    C    0.76355   0.60853   0.42353   1.000
    N124    N    0.79476   0.62495   0.42727   1.000
    N125    N    0.78158   0.55441   0.43978   1.000
    N126    N    0.82379   0.53825   0.45312   1.000
    C127    C    0.75759   0.60023   0.63539   1.000
    N128    N    0.78784   0.61889   0.58473   1.000
    N129    N    0.78009   0.54687   0.65690   1.000
    N130    N    0.82422   0.53273   0.61866   1.000
    N131    N    0.83113   0.41951   0.56867   1.000
    N132    N    0.82876   0.57622   0.57505   1.000
    N133    N    0.83155   0.58063   0.44615   1.000
    C134    C    0.23699   0.31813   0.53832   1.000
    C135    C    0.22203   0.53559   0.33689   1.000
    C136    C    0.23060   0.31652   0.33705   1.000
    C137    C    0.18312   0.35028   0.53398   1.000
    N138    N    0.15159   0.33242   0.53255   1.000
    N139    N    0.15813   0.40191   0.53107   1.000
    N140    N    0.10716   0.37368   0.52817   1.000
    N141    N    0.11095   0.41532   0.52773   1.000
    C142    C    0.16669   0.53816   0.36135   1.000
    N143    N    0.14126   0.52598   0.41600   1.000
    N144    N    0.13649   0.53776   0.34088   1.000
    N145    N    0.09656   0.51880   0.42719   1.000
    N146    N    0.09523   0.52567   0.38091   1.000
    C147    C    0.17843   0.34538   0.36768   1.000
    N148    N    0.15248   0.32260   0.41907   1.000
    N149    N    0.15060   0.39798   0.34944   1.000
    N150    N    0.10851   0.36216   0.43201   1.000
    N151    N    0.10735   0.40764   0.39011   1.000
    H152    H    0.51503   0.51450   0.54605   1.000
    O153    O    0.44218   0.43462   0.48813   1.000
    O154    O    0.50031   0.49862   0.53796   1.000
    O155    O    0.27152   0.56481   0.62368   1.000
    H156    H    0.33761   0.65611   0.47718   1.000
    O157    O    0.34839   0.62113   0.50335   1.000
    S158    S    0.26314   0.54140   0.59835   1.000
    O159    O    0.20977   0.54832   0.60592   1.000
    H160    H    0.32116   0.60378   0.51833   1.000
    O161    O    0.29476   0.55917   0.53673   1.000
    O162    O    0.44252   0.63964   0.42142   1.000
    H163    H    0.38372   0.57190   0.42417   1.000
    Ce164   Ce   0.44394   0.56729   0.48160   1.000
    H165    H    0.46636   0.66007   0.40385   1.000
    O166    O    0.40687   0.54296   0.44563   1.000
    H167    H    0.44334   0.51980   0.31905   1.000
    O168    O    0.47201   0.52652   0.31977   1.000
    Ce169   Ce   0.36399   0.47979   0.52996   1.000
    O170    O    0.29894   0.48052   0.61177   1.000
    O171    O    0.40821   0.50476   0.54629   1.000
    H172    H    0.50319   0.52267   0.28794   1.000
    O173    O    0.50988   0.50440   0.44313   1.000
    O174    O    0.35480   0.46966   0.66395   1.000
    Ce175   Ce   0.48649   0.47597   0.40772   1.000
    H176    H    0.33196   0.46724   0.65045   1.000
    Ce177   Ce   0.44986   0.44700   0.60488   1.000
    H178    H    0.59502   0.43736   0.32973   1.000
    O179    O    0.57596   0.46842   0.34152   1.000
    H180    H    0.60034   0.46402   0.35892   1.000
    Ce181   Ce   0.56993   0.44341   0.48487   1.000
    O182    O    0.41173   0.40314   0.59707   1.000
    O183    O    0.63041   0.44952   0.39672   1.000
    O184    O    0.45105   0.40687   0.69506   1.000
    H185    H    0.38936   0.38151   0.62468   1.000
    O186    O    0.51222   0.40106   0.55318   1.000
    O187    O    0.54917   0.39936   0.45507   1.000
    H188    H    0.41823   0.41719   0.72346   1.000
    Ce189   Ce   0.49024   0.35686   0.53071   1.000
    O190    O    0.49329   0.28993   0.62428   1.000
    H191    H    0.50910   0.29504   0.64180   1.000
    H192    H    0.48286   0.40348   0.70040   1.000
    O193    O    0.64722   0.37493   0.47188   1.000
    H194    H    0.58539   0.37933   0.43305   1.000
    S195    S    0.66763   0.38945   0.41042   1.000
    O196    O    0.64855   0.36239   0.39788   1.000
    O197    O    0.72344   0.38312   0.38720   1.000
    H198    H    0.52248   0.26284   0.60743   1.000
    O199    O    0.55004   0.28146   0.53071   1.000
    H200    H    0.56560   0.26269   0.50558   1.000
    H201    H    0.33733   0.50756   0.66096   1.000
    C202    C    0.60147   0.40483   0.63898   1.000
    N203    N    0.55022   0.40717   0.65734   1.000
    N204    N    0.62361   0.41085   0.58656   1.000
    N205    N    0.58538   0.41705   0.57290   1.000
    C206    C    0.40807   0.60271   0.63165   1.000
    N207    N    0.41430   0.62073   0.57919   1.000
    N208    N    0.41166   0.55107   0.65467   1.000
    N209    N    0.42067   0.53742   0.61540   1.000
    C210    C    0.60127   0.59609   0.43878   1.000
    N211    N    0.55069   0.61842   0.43639   1.000
    N212    N    0.61772   0.54224   0.45683   1.000
    N213    N    0.57729   0.53177   0.46455   1.000
    N214    N    0.54123   0.41499   0.61532   1.000
    N215    N    0.53623   0.57762   0.45284   1.000
    N216    N    0.42215   0.57960   0.56987   1.000
    C217    C    0.50654   0.33439   0.38059   1.000
    N218    N    0.50466   0.38493   0.36247   1.000
    N219    N    0.50324   0.31029   0.43269   1.000
    N220    N    0.49894   0.34687   0.44655   1.000
    C221    C    0.33473   0.50024   0.38425   1.000
    N222    N    0.31641   0.48769   0.43779   1.000
    N223    N    0.38572   0.49947   0.36398   1.000
    N224    N    0.39834   0.48632   0.40564   1.000
    C225    C    0.34208   0.33276   0.55545   1.000
    N226    N    0.31853   0.38239   0.55812   1.000
    N227    N    0.39329   0.31041   0.55541   1.000
    N228    N    0.40140   0.34718   0.55776   1.000
    N229    N    0.49984   0.39156   0.40421   1.000
    N230    N    0.35610   0.39070   0.55935   1.000
    N231    N    0.35636   0.47994   0.44990   1.000
    H232    H    0.51138   0.52302   0.85944   1.000
    O233    O    0.44808   0.44699   0.07233   1.000
    O234    O    0.50104   0.50781   0.89828   1.000
    O235    O    0.58562   0.57368   0.97918   1.000
    H236    H    0.44293   0.66801   0.95560   1.000
    O237    O    0.46641   0.63112   0.95870   1.000
    S238    S    0.55898   0.55169   0.03565   1.000
    O239    O    0.56555   0.55920   0.07476   1.000
    H240    H    0.48003   0.61471   0.98961   1.000
    O241    O    0.49733   0.57053   0.04445   1.000
    O242    O    0.38834   0.65159   0.91732   1.000
    H243    H    0.38511   0.58403   0.05118   1.000
    Ce244   Ce   0.44522   0.57834   0.93819   1.000
    H245    H    0.37468   0.67163   0.88681   1.000
    O246    O    0.40674   0.55586   0.03521   1.000
    H247    H    0.27811   0.53216   0.14630   1.000
    O248    O    0.28103   0.53785   0.10966   1.000
    Ce249   Ce   0.49017   0.49109   0.06485   1.000
    O250    O    0.57247   0.49067   0.04915   1.000
    O251    O    0.50721   0.51450   0.97822   1.000
    H252    H    0.24883   0.53669   0.11121   1.000
    O253    O    0.40547   0.51453   0.97711   1.000
    O254    O    0.62640   0.47829   0.95376   1.000
    Ce255   Ce   0.37032   0.48947   0.06066   1.000
    H256    H    0.61253   0.47607   0.99216   1.000
    Ce257   Ce   0.56795   0.45604   0.93863   1.000
    H258    H    0.29452   0.44814   0.06943   1.000
    O259    O    0.30527   0.47947   0.04485   1.000
    H260    H    0.32189   0.47472   0.00821   1.000
    Ce261   Ce   0.44870   0.45246   0.93684   1.000
    O262    O    0.55808   0.41454   0.02944   1.000
    O263    O    0.36011   0.45937   0.95596   1.000
    O264    O    0.66071   0.41429   0.89151   1.000
    H265    H    0.58621   0.39127   0.04640   1.000
    O266    O    0.51619   0.41150   0.97229   1.000
    O267    O    0.41825   0.41094   0.03055   1.000
    H268    H    0.68744   0.42657   0.88613   1.000
    Ce269   Ce   0.49350   0.36762   0.06066   1.000
    O270    O    0.58867   0.30320   0.03119   1.000
    H271    H    0.60352   0.30587   0.99380   1.000
    H272    H    0.66726   0.41050   0.85785   1.000
    O273    O    0.43649   0.38397   0.94253   1.000
    H274    H    0.39624   0.39072   0.03720   1.000
    S275    S    0.37442   0.39925   0.96663   1.000
    O276    O    0.36162   0.37290   0.02513   1.000
    O277    O    0.35219   0.39242   0.93951   1.000
    H278    H    0.57510   0.27324   0.05063   1.000
    O279    O    0.49566   0.29022   0.08508   1.000
    H280    H    0.47443   0.26993   0.11782   1.000
    H281    H    0.62355   0.51601   0.93608   1.000
    C282    C    0.60352   0.40938   0.79934   1.000
    N283    N    0.62316   0.41318   0.82822   1.000
    N284    N    0.55142   0.41376   0.82511   1.000
    N285    N    0.53921   0.42056   0.86940   1.000
    C286    C    0.59903   0.60763   0.79667   1.000
    N287    N    0.54602   0.62703   0.82260   1.000
    N288    N    0.62119   0.55543   0.82284   1.000
    N289    N    0.58082   0.54291   0.86486   1.000
    C290    C    0.40136   0.60407   0.79607   1.000
    N291    N    0.39949   0.62399   0.82802   1.000
    N292    N    0.41502   0.55045   0.81702   1.000
    N293    N    0.42248   0.53765   0.86167   1.000
    N294    N    0.58215   0.42042   0.87139   1.000
    N295    N    0.41348   0.58195   0.86829   1.000
    N296    N    0.53551   0.58626   0.86458   1.000
    C297    C    0.34073   0.34441   0.20438   1.000
    N298    N    0.32057   0.39628   0.17613   1.000
    N299    N    0.39426   0.32379   0.18083   1.000
    N300    N    0.40681   0.36335   0.13865   1.000
    C301    C    0.34030   0.51261   0.21485   1.000
    N302    N    0.39262   0.50745   0.19231   1.000
    N303    N    0.32236   0.51143   0.18283   1.000
    N304    N    0.36461   0.50475   0.14057   1.000
    C305    C    0.52604   0.33601   0.20724   1.000
    N306    N    0.51974   0.38849   0.18271   1.000
    N307    N    0.52638   0.31636   0.17606   1.000
    N308    N    0.51970   0.35727   0.13264   1.000
    N309    N    0.36239   0.40695   0.13594   1.000
    N310    N    0.51569   0.40103   0.13666   1.000
    N311    N    0.40665   0.50291   0.14598   1.000
    H312    H    0.50653   0.82870   0.55151   1.000
    O313    O    0.43741   0.04066   0.47332   1.000
    O314    O    0.49367   0.86763   0.53765   1.000
    O315    O    0.26012   0.95501   0.60329   1.000
    H316    H    0.33479   0.92973   0.69538   1.000
    O317    O    0.34532   0.93275   0.65853   1.000
    S318    S    0.25482   0.01089   0.57935   1.000
    O319    O    0.20268   0.05192   0.58560   1.000
    H320    H    0.31759   0.96398   0.64161   1.000
    O321    O    0.29061   0.01883   0.59695   1.000
    O322    O    0.44290   0.88925   0.68104   1.000
    H323    H    0.38543   0.02140   0.60966   1.000
    Ce324   Ce   0.44025   0.90849   0.60731   1.000
    H325    H    0.46674   0.85916   0.70155   1.000
    O326    O    0.40760   0.00440   0.58226   1.000
    H327    H    0.45377   0.11104   0.55987   1.000
    O328    O    0.48020   0.07382   0.56521   1.000
    Ce329   Ce   0.35813   0.03457   0.51737   1.000
    O330    O    0.28904   0.02182   0.51853   1.000
    O331    O    0.40253   0.94798   0.54231   1.000
    H332    H    0.51342   0.07377   0.56298   1.000
    O333    O    0.50758   0.94431   0.54135   1.000
    O334    O    0.34177   0.92585   0.50658   1.000
    Ce335   Ce   0.48658   0.02697   0.51490   1.000
    H336    H    0.31937   0.96407   0.50502   1.000
    Ce337   Ce   0.43871   0.90745   0.48519   1.000
    H338    H    0.59516   0.03505   0.46937   1.000
    O339    O    0.57824   0.01111   0.50235   1.000
    H340    H    0.60201   0.97409   0.49841   1.000
    Ce341   Ce   0.56530   0.90217   0.47925   1.000
    O342    O    0.40040   0.99887   0.44213   1.000
    O343    O    0.62994   0.92106   0.48359   1.000
    O344    O    0.43366   0.85802   0.44703   1.000
    H345    H    0.37840   0.01628   0.41895   1.000
    O346    O    0.50320   0.93820   0.43843   1.000
    O347    O    0.54412   0.99652   0.43723   1.000
    H348    H    0.39945   0.85306   0.46013   1.000
    Ce349   Ce   0.48086   0.02818   0.39561   1.000
    O350    O    0.47902   0.99970   0.33076   1.000
    H351    H    0.50013   0.96238   0.33347   1.000
    H352    H    0.46341   0.82321   0.44548   1.000
    O353    O    0.63970   0.90654   0.41010   1.000
    H354    H    0.57997   0.00263   0.41592   1.000
    S355    S    0.66390   0.93097   0.42333   1.000
    O356    O    0.64487   0.98942   0.39656   1.000
    O357    O    0.72055   0.90332   0.41540   1.000
    H358    H    0.50233   0.02005   0.30081   1.000
    O359    O    0.52982   0.05454   0.31801   1.000
    H360    H    0.53915   0.08692   0.29774   1.000
    H361    H    0.32518   0.90719   0.54402   1.000
    C362    C    0.58952   0.75919   0.44380   1.000
    N363    N    0.53683   0.78714   0.44838   1.000
    N364    N    0.61026   0.78335   0.45185   1.000
    N365    N    0.57028   0.82633   0.46117   1.000
    C366    C    0.39853   0.76888   0.63479   1.000
    N367    N    0.40648   0.79347   0.65543   1.000
    N368    N    0.39882   0.79842   0.58389   1.000
    N369    N    0.40784   0.84066   0.57349   1.000
    C370    C    0.59936   0.77024   0.63364   1.000
    N371    N    0.54861   0.80080   0.65443   1.000
    N372    N    0.61697   0.79236   0.58007   1.000
    N373    N    0.57643   0.83567   0.56828   1.000
    N374    N    0.52593   0.82882   0.45946   1.000
    N375    N    0.53496   0.84083   0.61297   1.000
    N376    N    0.41231   0.83763   0.61683   1.000
    C377    C    0.51312   0.17567   0.37155   1.000
    N378    N    0.51189   0.14696   0.42269   1.000
    N379    N    0.50419   0.15172   0.35103   1.000
    N380    N    0.49715   0.10795   0.39015   1.000
    C381    C    0.34306   0.18245   0.53322   1.000
    N382    N    0.31964   0.15906   0.52773   1.000
    N383    N    0.39389   0.15008   0.53382   1.000
    N384    N    0.40112   0.10720   0.52793   1.000
    C385    C    0.33344   0.17853   0.36263   1.000
    N386    N    0.31145   0.15522   0.41528   1.000
    N387    N    0.38331   0.14640   0.34307   1.000
    N388    N    0.39215   0.10311   0.38437   1.000
    N389    N    0.50187   0.10509   0.43321   1.000
    N390    N    0.34848   0.10838   0.42807   1.000
    N391    N    0.35637   0.11251   0.52474   1.000
    O392    O    0.22964   0.60439   0.21465   1.000
    O393    O    0.20168   0.53880   0.24289   1.000
    O394    O    0.15472   0.51994   0.45233   1.000
    O395    O    0.23122   0.56909   0.42540   1.000
    O396    O    0.52072   0.21838   0.24130   1.000
    O397    O    0.59900   0.19130   0.25006   1.000
    O398    O    0.55859   0.39557   0.25189   1.000
    O399    O    0.47108   0.42426   0.27229   1.000
    O400    O    0.25143   0.26216   0.46810   1.000
    O401    O    0.21046   0.22361   0.55163   1.000
    O402    O    0.39737   0.19585   0.59608   1.000
    O403    O    0.43285   0.22990   0.50968   1.000
    O404    O    0.20575   0.41605   0.23540   1.000
    O405    O    0.24966   0.42789   0.26591   1.000
    O406    O    0.38242   0.21704   0.21971   1.000
    O407    O    0.42490   0.22403   0.25572   1.000
    O408    O    0.72588   0.72332   0.43098   1.000
    O409    O    0.70327   0.76133   0.35844   1.000
    O410    O    0.76088   0.59150   0.34303   1.000
    O411    O    0.71043   0.54230   0.38517   1.000
    O412    O    0.34308   0.74006   0.76994   1.000
    O413    O    0.43104   0.71284   0.74616   1.000
    O414    O    0.45123   0.70818   0.54717   1.000
    O415    O    0.36359   0.73723   0.56684   1.000
    O416    O    0.73681   0.36647   0.77138   1.000
    O417    O    0.70505   0.45374   0.73684   1.000
    O418    O    0.51457   0.45067   0.73828   1.000
    O419    O    0.54143   0.36307   0.76962   1.000
    O420    O    0.73556   0.73092   0.56760   1.000
    O421    O    0.69586   0.70190   0.54920   1.000
    O422    O    0.51228   0.72465   0.75007   1.000
    O423    O    0.55989   0.74438   0.76871   1.000
