# CIF file generated by openbabel 3.0.0, see http://openbabel.sf.net
data_I
_chemical_name_common 'D:\! BYU CALCULATION\Acidic MOF Patent\Periodic_06_00\mof808_cellopt_pbesol-pos-final.pdb'
_cell_length_a 24.822
_cell_length_b 24.73
_cell_length_c 24.61
_cell_angle_alpha 60.32
_cell_angle_beta 60.04
_cell_angle_gamma 58.89
loop_
    _atom_site_label
    _atom_site_type_symbol
    _atom_site_fract_x
    _atom_site_fract_y
    _atom_site_fract_z
    _atom_site_occupancy
    H0      H    0.18104   0.42388   0.79301   1.000
    H1      H    0.18992   0.41570   0.51751   1.000
    H2      H    0.17859   0.69406   0.52251   1.000
    H3      H    0.45940   0.41715   0.52429   1.000
    H4      H    0.02675   0.92269   0.36881   1.000
    H5      H    0.26929   0.90192   0.36411   1.000
    C6      C    0.01052   0.41323   0.34604   1.000
    C7      C    0.18072   0.23925   0.14557   1.000
    C8      C    0.81740   0.25137   0.50874   1.000
    C9      C    0.01469   0.04986   0.33793   1.000
    C10     C    0.97261   0.41632   0.31075   1.000
    C11     C    0.18347   0.20334   0.21576   1.000
    C12     C    0.88778   0.21464   0.51122   1.000
    C13     C    0.97762   0.12053   0.30224   1.000
    N14     N    0.00724   0.41408   0.24878   1.000
    N15     N    0.18285   0.23831   0.24388   1.000
    N16     N    0.91678   0.15197   0.51033   1.000
    N17     N    0.91530   0.14972   0.33728   1.000
    C18     C    0.81016   0.41967   0.34466   1.000
    C19     C    0.18253   0.04315   0.34278   1.000
    C20     C    0.01580   0.24790   0.50840   1.000
    C21     C    0.01095   0.24765   0.14310   1.000
    C22     C    0.88090   0.42003   0.30922   1.000
    C23     C    0.18500   0.11317   0.30674   1.000
    C24     C    0.97907   0.21275   0.51107   1.000
    C25     C    0.97510   0.21176   0.21265   1.000
    C26     C    0.01047   0.41071   0.15023   1.000
    C27     C    0.18227   0.24240   0.34119   1.000
    C28     C    0.01598   0.05271   0.50528   1.000
    C29     C    0.81601   0.24991   0.34238   1.000
    C30     C    0.97305   0.41575   0.21967   1.000
    C31     C    0.18423   0.20493   0.30590   1.000
    C32     C    0.97976   0.12262   0.50949   1.000
    C33     C    0.88549   0.21273   0.30442   1.000
    N34     N    0.90973   0.41843   0.34411   1.000
    N35     N    0.18443   0.14085   0.24437   1.000
    N36     N    0.91582   0.24798   0.51196   1.000
    N37     N    0.01054   0.14873   0.23987   1.000
    N38     N    0.90945   0.41978   0.24660   1.000
    N39     N    0.18541   0.14217   0.34020   1.000
    N40     N    0.01390   0.15002   0.50993   1.000
    N41     N    0.91238   0.24660   0.24190   1.000
    C42     C    0.25360   0.30246   0.58156   1.000
    C43     C    0.06704   0.48625   0.77955   1.000
    C44     C    0.44474   0.48404   0.40836   1.000
    C45     C    0.24606   0.67975   0.58354   1.000
    C46     C    0.29160   0.29733   0.61804   1.000
    C47     C    0.06217   0.52404   0.71015   1.000
    C48     C    0.37660   0.51962   0.39980   1.000
    C49     C    0.28284   0.61143   0.62309   1.000
    N50     N    0.25691   0.29966   0.67991   1.000
    N51     N    0.06579   0.48985   0.67932   1.000
    N52     N    0.34406   0.58259   0.40005   1.000
    N53     N    0.34619   0.58064   0.59126   1.000
    C54     C    0.45105   0.30215   0.58195   1.000
    C55     C    0.06551   0.68488   0.58567   1.000
    C56     C    0.25578   0.47580   0.40183   1.000
    C57     C    0.24176   0.48741   0.78316   1.000
    C58     C    0.38246   0.29602   0.61888   1.000
    C59     C    0.06162   0.61554   0.62061   1.000
    C60     C    0.29013   0.51511   0.39663   1.000
    C61     C    0.28095   0.52287   0.71555   1.000
    C62     C    0.25149   0.30723   0.77727   1.000
    C63     C    0.07580   0.48571   0.57789   1.000
    C64     C    0.24100   0.67779   0.40653   1.000
    C65     C    0.44353   0.47930   0.59165   1.000
    C66     C    0.29076   0.29859   0.70906   1.000
    C67     C    0.06706   0.52401   0.61650   1.000
    C68     C    0.28178   0.60888   0.39891   1.000
    C69     C    0.37400   0.51871   0.62739   1.000
    N70     N    0.35413   0.29656   0.58433   1.000
    N71     N    0.05944   0.58710   0.68387   1.000
    N72     N    0.35263   0.48312   0.39787   1.000
    N73     N    0.24747   0.58545   0.68516   1.000
    N74     N    0.35407   0.29537   0.68194   1.000
    N75     N    0.06545   0.58696   0.58408   1.000
    N76     N    0.25204   0.57805   0.39698   1.000
    N77     N    0.34440   0.48687   0.68976   1.000
    O78     O    0.97758   0.41836   0.40406   1.000
    O79     O    0.18243   0.20668   0.11781   1.000
    O80     O    0.78937   0.31021   0.51053   1.000
    O81     O    0.07273   0.02025   0.30521   1.000
    O82     O    0.27686   0.69899   0.52216   1.000
    O83     O    0.46569   0.51679   0.41549   1.000
    O84     O    0.07610   0.42501   0.80108   1.000
    O85     O    0.19262   0.31239   0.61205   1.000
    O86     O    0.17413   0.82867   0.39223   1.000
    O87     O    0.10290   0.33181   0.42905   1.000
    O88     O    0.09943   0.33103   0.05192   1.000
    O89     O    0.71929   0.33747   0.43187   1.000
    O90     O    0.10060   0.95294   0.42816   1.000
    O91     O    0.78294   0.42275   0.31075   1.000
    O92     O    0.18721   0.01468   0.40069   1.000
    O93     O    0.07523   0.21358   0.50746   1.000
    O94     O    0.97655   0.30698   0.11607   1.000
    O95     O    0.06984   0.40829   0.12518   1.000
    O96     O    0.18287   0.30089   0.30798   1.000
    O97     O    0.98204   0.02946   0.50384   1.000
    O98     O    0.78980   0.21583   0.40054   1.000
    O99     O    0.46668   0.41802   0.62121   1.000
    O100    O    0.17983   0.70284   0.41178   1.000
    O101    O    0.08497   0.51514   0.51657   1.000
    O102    O    0.28223   0.31241   0.80257   1.000
    O103    O    0.18033   0.51876   0.80400   1.000
    O104    O    0.28855   0.41425   0.40727   1.000
    O105    O    0.07430   0.70650   0.61621   1.000
    O106    O    0.47371   0.31099   0.52057   1.000
    O107    O    0.18066   0.83073   0.51389   1.000
    O108    O    0.05358   0.83922   0.51350   1.000
    O109    O    0.28615   0.30038   0.52246   1.000
    O110    O    0.06548   0.51904   0.80712   1.000
    O111    O    0.47208   0.42389   0.41138   1.000
    O112    O    0.18708   0.70868   0.61546   1.000
    O113    O    0.98301   0.02765   0.39841   1.000
    O114    O    0.79438   0.21925   0.50394   1.000
    O115    O    0.17656   0.29937   0.12182   1.000
    O116    O    0.07111   0.40471   0.31471   1.000
    O117    O    0.06325   0.90609   0.55597   1.000
    O118    O    0.17396   0.39966   0.50132   1.000
    O119    O    0.16524   0.40755   0.84123   1.000
    O120    O    0.50787   0.40201   0.50780   1.000
    O121    O    0.16331   0.74256   0.50538   1.000
    O122    O    0.47640   0.30179   0.61591   1.000
    O123    O    0.06369   0.71289   0.52651   1.000
    O124    O    0.19588   0.50790   0.40480   1.000
    O125    O    0.27469   0.42729   0.80999   1.000
    O126    O    0.19174   0.31246   0.80049   1.000
    O127    O    0.07623   0.42678   0.61086   1.000
    O128    O    0.27234   0.70150   0.41094   1.000
    O129    O    0.46993   0.51199   0.53265   1.000
    O130    O    0.79157   0.31099   0.31342   1.000
    O131    O    0.07626   0.02522   0.50251   1.000
    O132    O    0.17972   0.21127   0.40109   1.000
    O133    O    0.97877   0.40834   0.12444   1.000
    O134    O    0.07156   0.21596   0.11964   1.000
    O135    O    0.98342   0.30834   0.50607   1.000
    O136    O    0.17472   0.02052   0.31243   1.000
    O137    O    0.78566   0.41524   0.40510   1.000
    O138    O    0.05729   0.90175   0.39351   1.000
    O139    O    0.22521   0.89443   0.39104   1.000
    Zr140   Zr   0.15403   0.93109   0.33832   1.000
    Zr141   Zr   0.15598   0.93134   0.47914   1.000
    Zr142   Zr   0.00944   0.94224   0.48167   1.000
    Zr143   Zr   0.10196   0.79400   0.58517   1.000
    Zr144   Zr   0.09765   0.79375   0.44539   1.000
    Zr145   Zr   0.24470   0.78521   0.43979   1.000
    H146    H    0.04243   0.92067   0.59458   1.000
    O147    O    0.32431   0.79900   0.44667   1.000
    O148    O    0.33415   0.78383   0.35485   1.000
    S149    S    0.36768   0.80882   0.37158   1.000
    O150    O    0.35123   0.88171   0.33753   1.000
    O151    O    0.43711   0.76875   0.36282   1.000
    O152    O    0.82111   0.98913   0.55136   1.000
    S153    S    0.87983   0.92902   0.55220   1.000
    O154    O    0.92667   0.93222   0.57527   1.000
    O155    O    0.92851   0.93134   0.47900   1.000
    O156    O    0.87160   0.86499   0.58725   1.000
    O157    O    0.26097   0.90460   0.47593   1.000
    H158    H    0.28033   0.93790   0.43940   1.000
    O159    O    0.08984   0.80429   0.66689   1.000
    H160    H    0.12334   0.77406   0.68892   1.000
    H161    H    0.29213   0.85955   0.46519   1.000
    O162    O    0.15455   0.93969   0.56968   1.000
    H163    H    0.20183   0.92623   0.56280   1.000
    O164    O    0.99150   0.81839   0.64759   1.000
    H165    H    0.95978   0.86090   0.62576   1.000
    O166    O    0.98974   0.81964   0.45578   1.000
    H167    H    0.97193   0.78616   0.49434   1.000
    O168    O    0.09690   0.78945   0.35179   1.000
    H169    H    0.12590   0.74316   0.35208   1.000
    H170    H    0.05189   0.79536   0.35852   1.000
    O171    O    0.23655   0.91806   0.26056   1.000
    O172    O    0.14259   0.90322   0.26690   1.000
    H173    H    0.13641   0.86043   0.28595   1.000
    H174    H    0.19015   0.89643   0.23942   1.000
    H175    H    0.95990   0.86389   0.46667   1.000
    H176    H    0.13277   0.98644   0.56839   1.000
    H177    H    0.27899   0.92029   0.24967   1.000
    H178    H    0.99107   0.82330   0.68501   1.000
    O179    O    0.59716   0.50437   0.59314   1.000
    H180    H    0.58323   0.31831   0.69006   1.000
    O181    O    0.57541   0.36026   0.65378   1.000
    S182    S    0.66673   0.46962   0.56215   1.000
    O183    O    0.71738   0.47687   0.56809   1.000
    H184    H    0.61499   0.37489   0.63209   1.000
    O185    O    0.68045   0.39339   0.58284   1.000
    O186    O    0.56974   0.25446   0.66848   1.000
    H187    H    0.68577   0.26292   0.59774   1.000
    Zr188   Zr   0.55799   0.33490   0.58789   1.000
    H189    H    0.54586   0.22541   0.68432   1.000
    O190    O    0.67049   0.29412   0.55963   1.000
    H191    H    0.76706   0.12803   0.56592   1.000
    O192    O    0.72037   0.15020   0.56760   1.000
    Zr193   Zr   0.69968   0.38943   0.48776   1.000
    O194    O    0.67861   0.48718   0.48662   1.000
    O195    O    0.59845   0.41192   0.51780   1.000
    H196    H    0.71088   0.12073   0.56027   1.000
    O197    O    0.60214   0.28852   0.51513   1.000
    O198    O    0.56855   0.55705   0.46147   1.000
    Zr199   Zr   0.70395   0.24995   0.48117   1.000
    H200    H    0.61266   0.53354   0.47187   1.000
    Zr201   Zr   0.55269   0.47982   0.44950   1.000
    H202    H    0.72205   0.15346   0.43836   1.000
    O203    O    0.68646   0.17084   0.47459   1.000
    H204    H    0.64263   0.19355   0.46301   1.000
    Zr205   Zr   0.55884   0.34134   0.43994   1.000
    O206    O    0.66017   0.46696   0.39891   1.000
    O207    O    0.58224   0.23884   0.44351   1.000
    O208    O    0.54537   0.57871   0.35649   1.000
    H209    H    0.67803   0.50279   0.37490   1.000
    O210    O    0.59529   0.41918   0.39475   1.000
    O211    O    0.66913   0.30324   0.39252   1.000
    H212    H    0.54620   0.61285   0.36545   1.000
    Zr213   Zr   0.69864   0.39350   0.34233   1.000
    O214    O    0.66639   0.50425   0.27061   1.000
    H215    H    0.62229   0.53399   0.29061   1.000
    H216    H    0.50039   0.59410   0.35535   1.000
    O217    O    0.56524   0.33510   0.35238   1.000
    H218    H    0.68100   0.27669   0.36451   1.000
    S219    S    0.59567   0.25886   0.36767   1.000
    O220    O    0.66905   0.23876   0.33491   1.000
    O221    O    0.56226   0.23443   0.35599   1.000
    H222    H    0.66086   0.48617   0.24606   1.000
    O223    O    0.68777   0.39930   0.26388   1.000
    H224    H    0.68664   0.36480   0.25630   1.000
    H225    H    0.53415   0.56908   0.50112   1.000
    O226    O    0.27495   0.11650   0.58369   1.000
    H227    H    0.09600   0.22727   0.68560   1.000
    O228    O    0.13576   0.22921   0.64640   1.000
    S229    S    0.23855   0.11668   0.55230   1.000
    O230    O    0.24442   0.05406   0.55567   1.000
    H231    H    0.14812   0.19641   0.62536   1.000
    O232    O    0.16276   0.16121   0.57552   1.000
    O233    O    0.02875   0.32961   0.66506   1.000
    H234    H    0.03379   0.27638   0.59566   1.000
    Zr235   Zr   0.10687   0.33915   0.58378   1.000
    H236    H    0.00415   0.36058   0.69021   1.000
    O237    O    0.06432   0.29754   0.55651   1.000
    H238    H    0.89971   0.36518   0.57349   1.000
    O239    O    0.92288   0.38795   0.57275   1.000
    Zr240   Zr   0.15705   0.24213   0.48216   1.000
    O241    O    0.25537   0.16351   0.47771   1.000
    O242    O    0.18234   0.28912   0.51137   1.000
    H243    H    0.89410   0.43532   0.56527   1.000
    O244    O    0.05923   0.41573   0.51226   1.000
    O245    O    0.32574   0.22604   0.45143   1.000
    Zr246   Zr   0.01791   0.38848   0.48043   1.000
    H247    H    0.30165   0.19584   0.46266   1.000
    Zr248   Zr   0.24879   0.33293   0.44202   1.000
    H249    H    0.92197   0.51236   0.44054   1.000
    O250    O    0.93876   0.49355   0.47712   1.000
    H251    H    0.96227   0.52486   0.46583   1.000
    Zr252   Zr   0.11109   0.47931   0.43653   1.000
    O253    O    0.23291   0.28969   0.39237   1.000
    O254    O    0.00741   0.55728   0.44608   1.000
    O255    O    0.34479   0.33206   0.34555   1.000
    H256    H    0.26769   0.25923   0.36713   1.000
    O257    O    0.18710   0.40777   0.38881   1.000
    O258    O    0.06964   0.45695   0.39054   1.000
    H259    H    0.37874   0.28702   0.35342   1.000
    Zr260   Zr   0.15773   0.38445   0.33788   1.000
    O261    O    0.26763   0.36958   0.26521   1.000
    H262    H    0.29783   0.36751   0.28165   1.000
    H263    H    0.36024   0.36204   0.34500   1.000
    O264    O    0.10157   0.56793   0.35258   1.000
    H265    H    0.04301   0.50068   0.36371   1.000
    S266    S    0.02508   0.60049   0.37084   1.000
    O267    O    0.00272   0.58227   0.33852   1.000
    O268    O    0.00086   0.67019   0.36193   1.000
    H269    H    0.25376   0.41478   0.23339   1.000
    O270    O    0.16177   0.46406   0.25769   1.000
    H271    H    0.12713   0.50299   0.24046   1.000
    H272    H    0.33864   0.20883   0.49038   1.000
    O273    O    0.26614   0.48081   0.93379   1.000
    H274    H    0.07945   0.58907   0.91968   1.000
    O275    O    0.12174   0.55174   0.91270   1.000
    S276    S    0.23374   0.45296   0.00401   1.000
    O277    O    0.24559   0.45988   0.05133   1.000
    H278    H    0.13636   0.52883   0.95304   1.000
    O279    O    0.15676   0.47691   0.01881   1.000
    O280    O    0.01604   0.57086   0.90216   1.000
    H281    H    0.02434   0.49894   0.01861   1.000
    Zr282   Zr   0.09687   0.48856   0.89152   1.000
    H283    H    0.99013   0.59227   0.87276   1.000
    O284    O    0.05640   0.46014   0.00371   1.000
    H285    H    0.89578   0.47644   0.08732   1.000
    O286    O    0.91664   0.47862   0.04064   1.000
    Zr287   Zr   0.15087   0.38385   0.03722   1.000
    O288    O    0.24967   0.37685   0.01876   1.000
    O289    O    0.17342   0.41473   0.93572   1.000
    H290    H    0.88933   0.46919   0.03034   1.000
    O291    O    0.05211   0.41796   0.93141   1.000
    O292    O    0.31986   0.35064   0.91033   1.000
    Zr293   Zr   0.01364   0.38440   0.03227   1.000
    H294    H    0.29567   0.35987   0.95562   1.000
    Zr295   Zr   0.24120   0.34560   0.89063   1.000
    H296    H    0.91912   0.34637   0.04361   1.000
    O297    O    0.93291   0.38450   0.01069   1.000
    H298    H    0.95645   0.37458   0.96522   1.000
    Zr299   Zr   0.10510   0.34313   0.88671   1.000
    O300    O    0.22800   0.29327   0.99774   1.000
    O301    O    0.00066   0.35535   0.90627   1.000
    O302    O    0.33834   0.24592   0.88879   1.000
    H303    H    0.26331   0.26697   0.01782   1.000
    O304    O    0.18178   0.29333   0.92755   1.000
    O305    O    0.06576   0.29617   0.99621   1.000
    H306    H    0.37012   0.25621   0.89147   1.000
    Zr307   Zr   0.15516   0.24063   0.02995   1.000
    O308    O    0.26495   0.16510   0.00282   1.000
    H309    H    0.29447   0.18391   0.95953   1.000
    H310    H    0.35150   0.24903   0.84246   1.000
    O311    O    0.09555   0.26101   0.88845   1.000
    H312    H    0.03929   0.27000   0.00559   1.000
    S313    S    0.01923   0.28010   0.91745   1.000
    O314    O    0.00026   0.24616   0.99032   1.000
    O315    O    0.99249   0.27307   0.88236   1.000
    H316    H    0.24879   0.13949   0.99700   1.000
    O317    O    0.16032   0.16342   0.01802   1.000
    H318    H    0.12531   0.15476   0.01970   1.000
    H319    H    0.32839   0.39195   0.87855   1.000
