# CIF file generated by openbabel 3.0.0, see http://openbabel.sf.net
data_I
_chemical_name_common 'D:\! BYU CALCULATION\Acidic MOF Patent\Periodic_07_10_HPO4\mof808_cellopt_pbesol-pos-final.pdb'
_cell_length_a 29.648
_cell_length_b 30.052
_cell_length_c 29.68
_cell_angle_alpha 60.01
_cell_angle_beta 60.44
_cell_angle_gamma 59.27
_space_group_name_H-M_alt 'P 1'
_space_group_name_Hall 'P 1'
loop_
    _symmetry_equiv_pos_as_xyz
    x,y,z
loop_
    _atom_site_label
    _atom_site_type_symbol
    _atom_site_fract_x
    _atom_site_fract_y
    _atom_site_fract_z
    _atom_site_occupancy
    H0      H    0.40034   0.36678   0.54721   1.000
    H1      H    0.95613   0.34070   0.28955   1.000
    N2      N    0.09053   0.24709   0.26701   1.000
    N3      N    0.81102   0.10423   0.51674   1.000
    H4      H    0.80818   0.09488   0.40458   1.000
    N5      N    0.78457   0.42543   0.39933   1.000
    N6      N    0.12759   0.07192   0.25404   1.000
    H7      H    0.81586   0.23607   0.55102   1.000
    N8      N    0.96158   0.08283   0.24833   1.000
    N9      N    0.79942   0.41798   0.24041   1.000
    H10     H    0.07584   0.09170   0.41908   1.000
    N11     N    0.97165   0.07745   0.55143   1.000
    N12     N    0.80751   0.25814   0.26040   1.000
    N13     N    0.11942   0.26143   0.74599   1.000
    H14     H    0.97762   0.41781   0.73388   1.000
    N15     N    0.28140   0.58381   0.40163   1.000
    N16     N    0.28161   0.56540   0.57623   1.000
    H17     H    0.27942   0.25305   0.59725   1.000
    N18     N    0.96227   0.57138   0.74882   1.000
    N19     N    0.29922   0.43089   0.37630   1.000
    N20     N    0.12547   0.58113   0.74907   1.000
    N21     N    0.28725   0.26335   0.74406   1.000
    N22     N    0.97945   0.56923   0.57471   1.000
    H23     H    0.12557   0.54267   0.45865   1.000
    H24     H    0.27267   0.41806   0.73733   1.000
    C25     C    0.87975   0.36610   0.35290   1.000
    C26     C    0.10079   0.16279   0.26040   1.000
    C27     C    0.88153   0.08601   0.33434   1.000
    C28     C    0.91085   0.35798   0.30179   1.000
    C29     C    0.09275   0.18941   0.29296   1.000
    C30     C    0.83645   0.12284   0.53337   1.000
    C31     C    0.82858   0.11561   0.36197   1.000
    C32     C    0.09335   0.08199   0.34403   1.000
    C33     C    0.88974   0.16373   0.55168   1.000
    C34     C    0.88445   0.17037   0.25437   1.000
    C35     C    0.88504   0.37305   0.26504   1.000
    C36     C    0.08684   0.16376   0.34924   1.000
    C37     C    0.88928   0.08916   0.53875   1.000
    C38     C    0.82121   0.38645   0.36883   1.000
    C39     C    0.10510   0.10734   0.28688   1.000
    C40     C    0.83603   0.19479   0.54815   1.000
    C41     C    0.90747   0.11369   0.27999   1.000
    C42     C    0.82665   0.39009   0.28302   1.000
    C43     C    0.08465   0.11079   0.37453   1.000
    C44     C    0.91498   0.11107   0.54774   1.000
    C45     C    0.83148   0.19798   0.28438   1.000
    C46     C    0.20433   0.25507   0.66630   1.000
    C47     C    0.97006   0.48764   0.74418   1.000
    C48     C    0.20250   0.57364   0.66228   1.000
    C49     C    0.17830   0.25713   0.71992   1.000
    C50     C    0.97381   0.46103   0.71429   1.000
    C51     C    0.25330   0.54551   0.42002   1.000
    C52     C    0.25480   0.54169   0.63580   1.000
    C53     C    0.96913   0.57109   0.66216   1.000
    C54     C    0.20301   0.48184   0.42971   1.000
    C55     C    0.20140   0.49159   0.74558   1.000
    C56     C    0.20510   0.25830   0.74714   1.000
    C57     C    0.97528   0.48745   0.65928   1.000
    C58     C    0.19491   0.56538   0.43390   1.000
    C59     C    0.25912   0.25324   0.63958   1.000
    C60     C    0.96642   0.54282   0.71758   1.000
    C61     C    0.26091   0.46639   0.41173   1.000
    C62     C    0.17804   0.54772   0.71824   1.000
    C63     C    0.25985   0.25742   0.71799   1.000
    C64     C    0.97353   0.54200   0.63403   1.000
    C65     C    0.17073   0.53103   0.44260   1.000
    C66     C    0.25377   0.46198   0.71717   1.000
    O67     O    0.60808   0.30812   0.47302   1.000
    O68     O    0.44065   0.35521   0.53284   1.000
    O69     O    0.51254   0.44920   0.60156   1.000
    H70     H    0.49316   0.29834   0.68667   1.000
    O71     O    0.49492   0.32724   0.65083   1.000
    P72     P    0.56909   0.41669   0.57442   1.000
    O73     O    0.61693   0.42221   0.57960   1.000
    H74     H    0.52942   0.33667   0.63453   1.000
    O75     O    0.58385   0.35248   0.59261   1.000
    O76     O    0.46947   0.24785   0.67525   1.000
    H77     H    0.58902   0.24634   0.61002   1.000
    Zr78    Zr   0.48014   0.30239   0.60033   1.000
    H79     H    0.44189   0.23069   0.69200   1.000
    O80     O    0.57310   0.26718   0.58017   1.000
    H81     H    0.68862   0.14572   0.55382   1.000
    O82     O    0.64934   0.14986   0.56235   1.000
    Zr83    Zr   0.59578   0.35183   0.51568   1.000
    O84     O    0.58234   0.43058   0.51063   1.000
    O85     O    0.51355   0.36686   0.54101   1.000
    H86     H    0.64964   0.11900   0.55886   1.000
    O87     O    0.51833   0.26256   0.54162   1.000
    O88     O    0.48372   0.48240   0.50155   1.000
    Zr89    Zr   0.60223   0.23295   0.51391   1.000
    H90     H    0.52364   0.46723   0.50131   1.000
    Zr91    Zr   0.47294   0.42193   0.48448   1.000
    H92     H    0.61494   0.15747   0.47602   1.000
    O93     O    0.59047   0.16710   0.50960   1.000
    H94     H    0.54985   0.18450   0.50558   1.000
    Zr95    Zr   0.48032   0.30456   0.48016   1.000
    O96     O    0.55993   0.41465   0.44125   1.000
    O97     O    0.50055   0.21660   0.49211   1.000
    O98     O    0.43039   0.50901   0.43977   1.000
    H99     H    0.57297   0.44568   0.41965   1.000
    O100    O    0.51019   0.37018   0.43841   1.000
    O101    O    0.57208   0.27511   0.43862   1.000
    H102    H    0.42290   0.53762   0.45204   1.000
    Zr103   Zr   0.59541   0.34933   0.39802   1.000
    O104    O    0.56679   0.43815   0.33508   1.000
    H105    H    0.52786   0.45384   0.33750   1.000
    H106    H    0.39685   0.51578   0.43242   1.000
    O107    O    0.47901   0.29620   0.41551   1.000
    H108    H    0.58200   0.25240   0.41592   1.000
    P109    P    0.51097   0.23257   0.42926   1.000
    O110    O    0.57175   0.21677   0.39666   1.000
    O111    O    0.47886   0.20460   0.42745   1.000
    H112    H    0.58793   0.41944   0.30671   1.000
    O113    O    0.62120   0.34933   0.32182   1.000
    H114    H    0.65564   0.32354   0.30536   1.000
    H115    H    0.46265   0.48370   0.53924   1.000
    C116    C    0.28751   0.25492   0.66454   1.000
    C117    C    0.28614   0.49304   0.41587   1.000
    C118    C    0.28164   0.48656   0.66269   1.000
    C119    C    0.34209   0.25964   0.63239   1.000
    N120    N    0.36431   0.26934   0.57750   1.000
    N121    N    0.37361   0.26113   0.65197   1.000
    N122    N    0.41513   0.27299   0.60846   1.000
    C123    C    0.34039   0.46071   0.42441   1.000
    N124    N    0.37010   0.47762   0.43148   1.000
    N125    N    0.36042   0.40505   0.43936   1.000
    N126    N    0.40246   0.38852   0.45516   1.000
    C127    C    0.33495   0.45342   0.63383   1.000
    N128    N    0.36444   0.47319   0.58103   1.000
    N129    N    0.35862   0.39835   0.65505   1.000
    N130    N    0.40253   0.38429   0.61429   1.000
    N131    N    0.40972   0.27765   0.56350   1.000
    N132    N    0.40570   0.42976   0.56933   1.000
    N133    N    0.40782   0.43216   0.45114   1.000
    C134    C    0.80865   0.17506   0.53899   1.000
    C135    C    0.79469   0.39026   0.33697   1.000
    C136    C    0.80246   0.17160   0.33763   1.000
    C137    C    0.75334   0.20875   0.53403   1.000
    N138    N    0.72264   0.19027   0.53033   1.000
    N139    N    0.72625   0.26170   0.53185   1.000
    N140    N    0.67702   0.23240   0.52491   1.000
    N141    N    0.67869   0.27535   0.52615   1.000
    C142    C    0.73772   0.39230   0.36283   1.000
    N143    N    0.71144   0.38041   0.41945   1.000
    N144    N    0.70760   0.38984   0.34235   1.000
    N145    N    0.66596   0.37196   0.43127   1.000
    N146    N    0.66519   0.37734   0.38381   1.000
    C147    C    0.74865   0.20157   0.36940   1.000
    N148    N    0.72169   0.17869   0.42257   1.000
    N149    N    0.72071   0.25600   0.35043   1.000
    N150    N    0.67727   0.22039   0.43566   1.000
    N151    N    0.67677   0.26685   0.39239   1.000
    H152    H    0.08743   0.36774   0.54560   1.000
    O153    O    0.01783   0.29045   0.48805   1.000
    O154    O    0.07336   0.35291   0.53452   1.000
    O155    O    0.84603   0.41932   0.62599   1.000
    H156    H    0.92489   0.50576   0.47413   1.000
    O157    O    0.93058   0.47020   0.50332   1.000
    P158    P    0.84545   0.39319   0.59499   1.000
    O159    O    0.78465   0.40154   0.60275   1.000
    H160    H    0.90352   0.45308   0.51317   1.000
    O161    O    0.87603   0.41034   0.53046   1.000
    O162    O    0.01301   0.49301   0.42450   1.000
    H163    H    0.96014   0.42688   0.42511   1.000
    Zr164   Zr   0.02132   0.41916   0.48082   1.000
    H165    H    0.04193   0.50865   0.40697   1.000
    O166    O    0.98508   0.39733   0.44609   1.000
    H167    H    0.01841   0.37318   0.32519   1.000
    O168    O    0.04728   0.37920   0.32864   1.000
    Zr169   Zr   0.94192   0.33251   0.53099   1.000
    O170    O    0.87962   0.32891   0.60957   1.000
    O171    O    0.98173   0.36001   0.54638   1.000
    H172    H    0.08172   0.37370   0.29801   1.000
    O173    O    0.08324   0.36006   0.44174   1.000
    O174    O    0.93313   0.32350   0.66109   1.000
    Zr175   Zr   0.05798   0.33108   0.41222   1.000
    H176    H    0.91115   0.31782   0.64783   1.000
    Zr177   Zr   0.02318   0.30480   0.60136   1.000
    H178    H    0.16108   0.29210   0.33812   1.000
    O179    O    0.14125   0.32561   0.34797   1.000
    H180    H    0.16739   0.32221   0.36595   1.000
    Zr181   Zr   0.14011   0.29919   0.48480   1.000
    O182    O    0.98918   0.25896   0.59540   1.000
    O183    O    0.19726   0.31009   0.39822   1.000
    O184    O    0.02199   0.26298   0.68929   1.000
    H185    H    0.96527   0.23837   0.62554   1.000
    O186    O    0.08590   0.25716   0.55115   1.000
    O187    O    0.12135   0.25592   0.45590   1.000
    H188    H    0.98682   0.27767   0.71553   1.000
    Zr189   Zr   0.06448   0.21540   0.53009   1.000
    O190    O    0.06420   0.15183   0.61917   1.000
    H191    H    0.08074   0.15668   0.63715   1.000
    H192    H    0.05402   0.26055   0.69533   1.000
    O193    O    0.21608   0.23454   0.47766   1.000
    H194    H    0.15741   0.23338   0.43336   1.000
    P195    P    0.23489   0.24707   0.41448   1.000
    O196    O    0.22368   0.21503   0.39736   1.000
    O197    O    0.29840   0.24111   0.38911   1.000
    H198    H    0.09436   0.12425   0.60041   1.000
    O199    O    0.12114   0.14056   0.52976   1.000
    H200    H    0.13675   0.12464   0.50127   1.000
    H201    H    0.91249   0.36342   0.65555   1.000
    C202    C    0.17490   0.26035   0.63539   1.000
    N203    N    0.12134   0.26499   0.65436   1.000
    N204    N    0.19718   0.26706   0.58112   1.000
    N205    N    0.15659   0.27634   0.56712   1.000
    C206    C    0.98259   0.45620   0.62952   1.000
    N207    N    0.98933   0.47529   0.57537   1.000
    N208    N    0.98750   0.40274   0.65243   1.000
    N209    N    0.99820   0.38907   0.61129   1.000
    C210    C    0.17378   0.44926   0.43878   1.000
    N211    N    0.12088   0.47118   0.43862   1.000
    N212    N    0.19293   0.39372   0.45463   1.000
    N213    N    0.15205   0.38192   0.46292   1.000
    N214    N    0.11090   0.27546   0.61104   1.000
    N215    N    0.10786   0.42868   0.45405   1.000
    N216    N    0.99916   0.43322   0.56461   1.000
    C217    C    0.08134   0.19116   0.38176   1.000
    N218    N    0.07985   0.24319   0.36144   1.000
    N219    N    0.07695   0.16812   0.43579   1.000
    N220    N    0.07206   0.20706   0.44843   1.000
    C221    C    0.90892   0.35503   0.38714   1.000
    N222    N    0.88895   0.34410   0.44223   1.000
    N223    N    0.96166   0.35380   0.36665   1.000
    N224    N    0.97349   0.34246   0.40943   1.000
    C225    C    0.91847   0.18841   0.55570   1.000
    N226    N    0.89534   0.24026   0.55636   1.000
    N227    N    0.97186   0.16521   0.55410   1.000
    N228    N    0.98188   0.20369   0.55295   1.000
    N229    N    0.07398   0.25192   0.40356   1.000
    N230    N    0.93543   0.24901   0.55439   1.000
    N231    N    0.92962   0.33746   0.45467   1.000
    H232    H    0.08496   0.37583   0.86344   1.000
    O233    O    0.02396   0.30195   0.06930   1.000
    O234    O    0.07270   0.36194   0.90351   1.000
    O235    O    0.16237   0.42706   0.97445   1.000
    H236    H    0.01359   0.51722   0.94990   1.000
    O237    O    0.03972   0.47951   0.95635   1.000
    P238    P    0.12999   0.40310   0.03202   1.000
    O239    O    0.13638   0.41327   0.07624   1.000
    H240    H    0.04876   0.46388   0.99137   1.000
    O241    O    0.06522   0.42173   0.04590   1.000
    O242    O    0.96549   0.50482   0.92001   1.000
    H243    H    0.96005   0.44001   0.04647   1.000
    Zr244   Zr   0.01776   0.42940   0.93943   1.000
    H245    H    0.95112   0.52096   0.88964   1.000
    O246    O    0.98096   0.40987   0.03157   1.000
    H247    H    0.85732   0.38624   0.14164   1.000
    O248    O    0.86284   0.39239   0.10272   1.000
    Zr249   Zr   0.06628   0.34353   0.06006   1.000
    O250    O    0.14464   0.33885   0.05082   1.000
    O251    O    0.08319   0.36960   0.97716   1.000
    H252    H    0.83281   0.38786   0.10202   1.000
    O253    O    0.97896   0.37041   0.97708   1.000
    O254    O    0.19881   0.33154   0.95241   1.000
    Zr255   Zr   0.94822   0.34345   0.06031   1.000
    H256    H    0.18557   0.32509   0.99330   1.000
    Zr257   Zr   0.13965   0.31335   0.93919   1.000
    H258    H    0.87557   0.30411   0.06979   1.000
    O259    O    0.88478   0.33753   0.04532   1.000
    H260    H    0.90315   0.33319   0.00525   1.000
    Zr261   Zr   0.02352   0.30836   0.94128   1.000
    O262    O    0.13236   0.26964   0.02603   1.000
    O263    O    0.93610   0.32015   0.95663   1.000
    O264    O    0.22944   0.27030   0.89760   1.000
    H265    H    0.16244   0.24734   0.04192   1.000
    O266    O    0.09023   0.26678   0.97310   1.000
    O267    O    0.99422   0.26666   0.03104   1.000
    H268    H    0.25422   0.28590   0.89280   1.000
    Zr269   Zr   0.06807   0.22625   0.05768   1.000
    O270    O    0.15932   0.16368   0.03223   1.000
    H271    H    0.17385   0.16693   0.99358   1.000
    H272    H    0.23678   0.26789   0.86184   1.000
    O273    O    0.01759   0.24410   0.93730   1.000
    H274    H    0.97208   0.24406   0.04015   1.000
    P275    P    0.95383   0.25705   0.96751   1.000
    O276    O    0.93690   0.22532   0.02812   1.000
    O277    O    0.92874   0.25084   0.93496   1.000
    H278    H    0.14134   0.13518   0.05284   1.000
    O279    O    0.07080   0.14989   0.08252   1.000
    H280    H    0.04567   0.13222   0.11532   1.000
    H281    H    0.19179   0.37160   0.93923   1.000
    C282    C    0.17519   0.26549   0.80084   1.000
    N283    N    0.19485   0.27206   0.82892   1.000
    N284    N    0.12110   0.27155   0.82670   1.000
    N285    N    0.10750   0.28247   0.87030   1.000
    C286    C    0.17114   0.46177   0.79960   1.000
    N287    N    0.11624   0.48226   0.82543   1.000
    N288    N    0.19325   0.40763   0.82608   1.000
    N289    N    0.15081   0.39506   0.86804   1.000
    C290    C    0.97575   0.45627   0.79915   1.000
    N291    N    0.97499   0.47718   0.83081   1.000
    N292    N    0.98969   0.40100   0.82144   1.000
    N293    N    0.99856   0.38827   0.86656   1.000
    N294    N    0.15175   0.28295   0.87165   1.000
    N295    N    0.99013   0.43435   0.87190   1.000
    N296    N    0.10417   0.44040   0.86755   1.000
    C297    C    0.91633   0.20013   0.20178   1.000
    N298    N    0.89511   0.25354   0.17329   1.000
    N299    N    0.97184   0.17934   0.17817   1.000
    N300    N    0.98458   0.22063   0.13544   1.000
    C301    C    0.91869   0.36768   0.21065   1.000
    N302    N    0.97286   0.36240   0.18614   1.000
    N303    N    0.90026   0.36447   0.17908   1.000
    N304    N    0.94364   0.35649   0.13560   1.000
    C305    C    0.10011   0.19278   0.20363   1.000
    N306    N    0.09363   0.24673   0.17784   1.000
    N307    N    0.09915   0.17226   0.17280   1.000
    N308    N    0.09141   0.21404   0.12833   1.000
    N309    N    0.93840   0.26513   0.13269   1.000
    N310    N    0.08809   0.25927   0.13133   1.000
    N311    N    0.98710   0.35564   0.13946   1.000
    H312    H    0.07912   0.68794   0.55000   1.000
    O313    O    0.01257   0.89346   0.47298   1.000
    O314    O    0.06546   0.72793   0.53583   1.000
    O315    O    0.83738   0.80586   0.60164   1.000
    H316    H    0.92240   0.78023   0.68933   1.000
    O317    O    0.92716   0.78582   0.65210   1.000
    P318    P    0.83824   0.86259   0.57553   1.000
    O319    O    0.77785   0.90885   0.58407   1.000
    H320    H    0.89928   0.82132   0.63609   1.000
    O321    O    0.87159   0.87617   0.59286   1.000
    O322    O    0.01246   0.74880   0.67714   1.000
    H323    H    0.96143   0.87212   0.61059   1.000
    Zr324   Zr   0.01742   0.76590   0.60189   1.000
    H325    H    0.04064   0.71826   0.69397   1.000
    O326    O    0.98500   0.85697   0.58058   1.000
    H327    H    0.02927   0.96057   0.55706   1.000
    O328    O    0.05455   0.92113   0.56371   1.000
    Zr329   Zr   0.93648   0.88622   0.51518   1.000
    O330    O    0.87036   0.87901   0.51124   1.000
    O331    O    0.97468   0.80348   0.54207   1.000
    H332    H    0.09158   0.91809   0.55735   1.000
    O333    O    0.08054   0.80016   0.54088   1.000
    O334    O    0.92019   0.78123   0.50418   1.000
    Zr335   Zr   0.05825   0.88234   0.51276   1.000
    H336    H    0.89913   0.82209   0.49934   1.000
    Zr337   Zr   0.01177   0.76423   0.48690   1.000
    H338    H    0.16231   0.88921   0.47002   1.000
    O339    O    0.14430   0.86559   0.50476   1.000
    H340    H    0.16909   0.82502   0.50077   1.000
    Zr341   Zr   0.13290   0.76205   0.48016   1.000
    O342    O    0.97754   0.85182   0.44231   1.000
    O343    O    0.19555   0.77643   0.48887   1.000
    O344    O    0.00555   0.71995   0.44806   1.000
    H345    H    0.95376   0.86826   0.42002   1.000
    O346    O    0.07591   0.79543   0.43850   1.000
    O347    O    0.11604   0.85277   0.43665   1.000
    H348    H    0.96935   0.71613   0.46370   1.000
    Zr349   Zr   0.05474   0.88157   0.39793   1.000
    O350    O    0.05061   0.85649   0.33644   1.000
    H351    H    0.07253   0.81803   0.33927   1.000
    H352    H    0.03592   0.68327   0.44765   1.000
    O353    O    0.20689   0.75625   0.41489   1.000
    H354    H    0.15281   0.86033   0.41288   1.000
    P355    P    0.22966   0.78586   0.42556   1.000
    O356    O    0.21862   0.84616   0.39288   1.000
    O357    O    0.29398   0.75215   0.41817   1.000
    H358    H    0.07557   0.87788   0.30704   1.000
    O359    O    0.10205   0.90787   0.32088   1.000
    H360    H    0.11144   0.94089   0.30335   1.000
    H361    H    0.90078   0.76637   0.54392   1.000
    C362    C    0.16199   0.61780   0.44441   1.000
    N363    N    0.10732   0.64697   0.45057   1.000
    N364    N    0.18429   0.64231   0.45176   1.000
    N365    N    0.14353   0.68651   0.46218   1.000
    C366    C    0.97301   0.62589   0.63391   1.000
    N367    N    0.98194   0.65026   0.65534   1.000
    N368    N    0.97482   0.65560   0.58112   1.000
    N369    N    0.98602   0.69780   0.57011   1.000
    C370    C    0.17241   0.62812   0.63104   1.000
    N371    N    0.11949   0.65898   0.65181   1.000
    N372    N    0.19120   0.64979   0.57566   1.000
    N373    N    0.14909   0.69318   0.56268   1.000
    N374    N    0.09703   0.68938   0.46194   1.000
    N375    N    0.10555   0.69863   0.60866   1.000
    N376    N    0.99015   0.69465   0.61519   1.000
    C377    C    0.08718   0.02818   0.37232   1.000
    N378    N    0.08634   0.99800   0.42487   1.000
    N379    N    0.07648   0.00473   0.35138   1.000
    N380    N    0.06863   0.95997   0.39161   1.000
    C381    C    0.91615   0.03470   0.53395   1.000
    N382    N    0.89129   0.01044   0.52968   1.000
    N383    N    0.96911   0.00202   0.53243   1.000
    N384    N    0.97638   0.95830   0.52606   1.000
    C385    C    0.90943   0.02966   0.36468   1.000
    N386    N    0.88760   0.00538   0.41920   1.000
    N387    N    0.96156   0.99767   0.34403   1.000
    N388    N    0.97218   0.95384   0.38640   1.000
    N389    N    0.07466   0.95592   0.43562   1.000
    N390    N    0.92728   0.95837   0.43184   1.000
    N391    N    0.92967   0.96300   0.52495   1.000
    O392    O    0.80428   0.46342   0.21003   1.000
    O393    O    0.77528   0.39692   0.23762   1.000
    O394    O    0.72474   0.37545   0.45652   1.000
    O395    O    0.80185   0.43033   0.42544   1.000
    O396    O    0.09736   0.07185   0.23754   1.000
    O397    O    0.17743   0.04392   0.24751   1.000
    O398    O    0.13517   0.25389   0.24530   1.000
    O399    O    0.04437   0.28278   0.27087   1.000
    O400    O    0.82421   0.11623   0.46695   1.000
    O401    O    0.77887   0.07994   0.55304   1.000
    O402    O    0.97533   0.04702   0.59762   1.000
    O403    O    0.00993   0.08193   0.50808   1.000
    O404    O    0.77740   0.27599   0.23339   1.000
    O405    O    0.82053   0.28463   0.26985   1.000
    O406    O    0.96001   0.06941   0.21615   1.000
    O407    O    0.00255   0.07367   0.25646   1.000
    O408    O    0.30416   0.57836   0.42992   1.000
    O409    O    0.27992   0.61792   0.35581   1.000
    O410    O    0.33833   0.44599   0.33960   1.000
    O411    O    0.28835   0.39388   0.38180   1.000
    O412    O    0.91507   0.59791   0.77169   1.000
    O413    O    0.00590   0.56487   0.75001   1.000
    O414    O    0.02708   0.56405   0.54277   1.000
    O415    O    0.93665   0.59493   0.56256   1.000
    O416    O    0.31296   0.22083   0.77333   1.000
    O417    O    0.28044   0.31051   0.73536   1.000
    O418    O    0.08482   0.30788   0.73700   1.000
    O419    O    0.11075   0.21784   0.77148   1.000
    O420    O    0.31037   0.59102   0.56305   1.000
    O421    O    0.27386   0.55567   0.54565   1.000
    O422    O    0.08224   0.58571   0.74882   1.000
    O423    O    0.13098   0.60185   0.77218   1.000
    H424    H    0.48426   0.21015   0.39001   1.000
    H425    H    0.59994   0.44937   0.59754   1.000
    H426    H    0.31859   0.21957   0.36448   1.000
    H427    H    0.75739   0.42295   0.62730   1.000
    H428    H    0.90689   0.22696   0.96066   1.000
    H429    H    0.16084   0.43415   0.05809   1.000
    H430    H    0.74985   0.89162   0.60501   1.000
    H431    H    0.31443   0.77733   0.39276   1.000
