# CIF file generated by openbabel 3.0.0, see http://openbabel.sf.net
data_I
_chemical_name_common 'D:\! BYU CALCULATION\Acidic MOF Patent\Periodic_58_00\UiO67_based_cell-pos-final.pdb'
_cell_length_a 19.208
_cell_length_b 19.116
_cell_length_c 19.044
_cell_angle_alpha 90.52
_cell_angle_beta 89.87
_cell_angle_gamma 90.11
loop_
    _atom_site_label
    _atom_site_type_symbol
    _atom_site_fract_x
    _atom_site_fract_y
    _atom_site_fract_z
    _atom_site_occupancy
    H0      H    0.79748   0.06521   0.42530   1.000
    H1      H    0.99988   0.86421   0.41810   1.000
    H2      H    0.99917   0.06778   0.63466   1.000
    H3      H    0.79200   0.86630   0.62642   1.000
    H4      H    0.30398   0.85900   0.13044   1.000
    H5      H    0.30438   0.06698   0.92222   1.000
    H6      H    0.50920   0.05948   0.12697   1.000
    H7      H    0.50696   0.86213   0.92264   1.000
    H8      H    0.00950   0.35996   0.92033   1.000
    H9      H    0.80888   0.34792   0.13228   1.000
    H10     H    0.00897   0.56069   0.12256   1.000
    H11     H    0.80582   0.56745   0.91665   1.000
    H12     H    0.29307   0.36620   0.62621   1.000
    H13     H    0.29249   0.56215   0.42866   1.000
    H14     H    0.49884   0.56863   0.63025   1.000
    H15     H    0.49958   0.35950   0.42330   1.000
    O16     O    0.90352   0.25097   0.93482   1.000
    O17     O    0.90576   0.67113   0.11122   1.000
    O18     O    0.91075   0.64995   0.92842   1.000
    O19     O    0.91518   0.27089   0.11731   1.000
    O20     O    0.89726   0.78146   0.41852   1.000
    O21     O    0.89499   0.15036   0.63787   1.000
    O22     O    0.91368   0.16489   0.44016   1.000
    O23     O    0.90773   0.76883   0.61340   1.000
    O24     O    0.39741   0.27640   0.43165   1.000
    O25     O    0.39796   0.65168   0.62222   1.000
    O26     O    0.40981   0.66284   0.43328   1.000
    O27     O    0.41040   0.26682   0.62232   1.000
    O28     O    0.38800   0.76425   0.93440   1.000
    O29     O    0.39207   0.16200   0.11500   1.000
    O30     O    0.40392   0.15267   0.92910   1.000
    O31     O    0.40334   0.77609   0.11999   1.000
    O32     O    0.89738   0.87425   0.33051   1.000
    O33     O    0.90402   0.06323   0.32274   1.000
    O34     O    0.90417   0.87097   0.73181   1.000
    O35     O    0.89644   0.05824   0.72488   1.000
    O36     O    0.89638   0.36360   0.82492   1.000
    O37     O    0.90600   0.55976   0.83531   1.000
    O38     O    0.91156   0.36175   0.21000   1.000
    O39     O    0.90222   0.55562   0.22118   1.000
    O40     O    0.38403   0.87128   0.82397   1.000
    O41     O    0.40042   0.06279   0.83510   1.000
    O42     O    0.40408   0.86722   0.21315   1.000
    O43     O    0.39167   0.05357   0.22596   1.000
    O44     O    0.39680   0.36712   0.34091   1.000
    O45     O    0.40834   0.54818   0.31880   1.000
    O46     O    0.40547   0.38499   0.73795   1.000
    O47     O    0.39680   0.56070   0.71359   1.000
    O48     O    0.83240   0.38287   0.09836   1.000
    O49     O    0.96873   0.53921   0.10135   1.000
    O50     O    0.96821   0.38165   0.94139   1.000
    O51     O    0.83219   0.53526   0.94926   1.000
    O52     O    0.97243   0.89622   0.45250   1.000
    O53     O    0.96972   0.03651   0.60132   1.000
    O54     O    0.83664   0.04556   0.45098   1.000
    O55     O    0.83052   0.88879   0.60195   1.000
    O56     O    0.33346   0.03488   0.95326   1.000
    O57     O    0.46877   0.04099   0.10193   1.000
    O58     O    0.33000   0.89144   0.09641   1.000
    O59     O    0.46724   0.88638   0.94354   1.000
    O60     O    0.33191   0.53886   0.45066   1.000
    O61     O    0.47141   0.53662   0.59628   1.000
    O62     O    0.33258   0.38890   0.60326   1.000
    O63     O    0.47172   0.39217   0.45560   1.000
    O64     O    0.95272   0.51208   0.97232   1.000
    O65     O    0.85272   0.40808   0.97195   1.000
    O66     O    0.85186   0.51372   0.07677   1.000
    O67     O    0.95532   0.40697   0.07352   1.000
    O68     O    0.84843   0.01585   0.57884   1.000
    O69     O    0.84695   0.91586   0.47230   1.000
    O70     O    0.94983   0.90979   0.58152   1.000
    O71     O    0.95212   0.02128   0.47387   1.000
    O72     O    0.45877   0.90962   0.07704   1.000
    O73     O    0.34973   0.90978   0.96901   1.000
    O74     O    0.45711   0.01350   0.97247   1.000
    O75     O    0.34939   0.01758   0.08124   1.000
    O76     O    0.45418   0.40975   0.58310   1.000
    O77     O    0.34384   0.40938   0.47329   1.000
    O78     O    0.45370   0.51755   0.47146   1.000
    O79     O    0.34366   0.51909   0.57806   1.000
    Zr80    Zr   0.89932   0.96775   0.65724   1.000
    Zr81    Zr   0.90151   0.96661   0.39757   1.000
    Zr82    Zr   0.53256   0.96164   0.02169   1.000
    Zr83    Zr   0.27422   0.96363   0.02704   1.000
    Zr84    Zr   0.90138   0.59028   0.02148   1.000
    Zr85    Zr   0.90359   0.32982   0.02227   1.000
    Zr86    Zr   0.90302   0.45549   0.15160   1.000
    Zr87    Zr   0.90054   0.46438   0.89192   1.000
    Zr88    Zr   0.52828   0.46412   0.52738   1.000
    Zr89    Zr   0.27027   0.46454   0.52728   1.000
    Zr90    Zr   0.90152   0.09580   0.53473   1.000
    Zr91    Zr   0.89939   0.83773   0.51567   1.000
    Zr92    Zr   0.40331   0.96067   0.15171   1.000
    Zr93    Zr   0.40139   0.96810   0.89224   1.000
    Zr94    Zr   0.02492   0.96538   0.52806   1.000
    Zr95    Zr   0.77331   0.96600   0.52738   1.000
    Zr96    Zr   0.40113   0.59365   0.52775   1.000
    Zr97    Zr   0.40054   0.33532   0.52696   1.000
    Zr98    Zr   0.39937   0.47016   0.65183   1.000
    Zr99    Zr   0.39981   0.45866   0.39825   1.000
    Zr100   Zr   0.02608   0.46076   0.02200   1.000
    Zr101   Zr   0.77841   0.45835   0.02736   1.000
    Zr102   Zr   0.40360   0.08996   0.02148   1.000
    Zr103   Zr   0.40215   0.83725   0.02773   1.000
    H104    H    0.95774   0.75343   0.61145   1.000
    H105    H    0.96017   0.18748   0.43942   1.000
    H106    H    0.45716   0.54929   0.30210   1.000
    H107    H    0.45837   0.67945   0.42981   1.000
    H108    H    0.40163   0.63462   0.39027   1.000
    H109    H    0.45379   0.38327   0.75602   1.000
    H110    H    0.45883   0.25037   0.62605   1.000
    H111    H    0.40056   0.29269   0.66638   1.000
    H112    H    0.85834   0.22642   0.93383   1.000
    H113    H    0.84871   0.35263   0.81000   1.000
    H114    H    0.91061   0.32464   0.85574   1.000
    H115    H    0.86551   0.70201   0.11878   1.000
    H116    H    0.85659   0.56793   0.24093   1.000
    H117    H    0.91678   0.59548   0.19198   1.000
    H118    H    0.33282   0.87511   0.81909   1.000
    H119    H    0.33741   0.75539   0.94354   1.000
    H120    H    0.39137   0.83182   0.85679   1.000
    H121    H    0.34017   0.05010   0.23016   1.000
    H122    H    0.34334   0.17822   0.10959   1.000
    H123    H    0.39989   0.09516   0.19671   1.000
    H124    H    0.91147   0.83340   0.69631   1.000
    H125    H    0.92266   0.10024   0.35425   1.000
    H126    H    0.94880   0.87706   0.75754   1.000
    H127    H    0.93783   0.05791   0.28330   1.000
    S128    S    0.92901   0.80262   0.34663   1.000
    S129    S    0.92842   0.13049   0.70865   1.000
    O130    O    0.00476   0.81076   0.35577   1.000
    O131    O    0.90629   0.75344   0.29318   1.000
    O132    O    0.90789   0.17983   0.76201   1.000
    O133    O    0.00517   0.12245   0.69868   1.000
    H134    H    0.87779   0.73148   0.63109   1.000
    H135    H    0.87943   0.19285   0.41437   1.000
    S136    S    0.37540   0.79325   0.19508   1.000
    S137    S    0.37104   0.13590   0.85590   1.000
    O138    O    0.39354   0.18702   0.80528   1.000
    O139    O    0.29520   0.12852   0.86656   1.000
    O140    O    0.40216   0.74253   0.24376   1.000
    O141    O    0.29879   0.79941   0.18826   1.000
    H142    H    0.41520   0.72120   0.93456   1.000
    H143    H    0.42499   0.20076   0.11978   1.000
    S144    S    0.88127   0.63541   0.85395   1.000
    S145    S    0.88771   0.28600   0.19240   1.000
    O146    O    0.80457   0.63369   0.86015   1.000
    O147    O    0.91141   0.68456   0.80522   1.000
    O148    O    0.81051   0.28660   0.18894   1.000
    O149    O    0.91875   0.23811   0.24187   1.000
    H150    H    0.94287   0.21850   0.93640   1.000
    H151    H    0.94913   0.69841   0.10886   1.000
    S152    S    0.42645   0.29325   0.35756   1.000
    S153    S    0.42691   0.63431   0.69668   1.000
    O154    O    0.40060   0.24460   0.30541   1.000
    O155    O    0.50314   0.62633   0.68870   1.000
    O156    O    0.40258   0.68395   0.74904   1.000
    H157    H    0.37158   0.37654   0.77561   1.000
    H158    H    0.37444   0.55847   0.28210   1.000
    C159    C    0.75404   0.73600   0.51756   1.000
    C160    C    0.67179   0.81555   0.51488   1.000
    H161    H    0.78806   0.69028   0.51719   1.000
    H162    H    0.62427   0.84664   0.51110   1.000
    C163    C    0.55473   0.69539   0.51494   1.000
    C164    C    0.63531   0.61435   0.52034   1.000
    H165    H    0.52463   0.74393   0.51467   1.000
    H166    H    0.68325   0.58392   0.52244   1.000
    C167    C    0.68091   0.74226   0.51546   1.000
    C168    C    0.62765   0.68744   0.51562   1.000
    N169    N    0.73359   0.84909   0.51667   1.000
    N170    N    0.78462   0.79921   0.51940   1.000
    N171    N    0.57272   0.58187   0.52139   1.000
    N172    N    0.52238   0.63242   0.51746   1.000
    C173    C    0.75205   0.45497   0.79467   1.000
    C174    C    0.67278   0.45390   0.87843   1.000
    H175    H    0.78371   0.45925   0.74709   1.000
    H176    H    0.62600   0.45430   0.91114   1.000
    C177    C    0.55206   0.45669   0.75864   1.000
    C178    C    0.63237   0.45882   0.67657   1.000
    H179    H    0.52275   0.45881   0.80806   1.000
    H180    H    0.67998   0.46053   0.64506   1.000
    C181    C    0.67925   0.45595   0.80438   1.000
    C182    C    0.62497   0.45724   0.75030   1.000
    N183    N    0.73554   0.45167   0.90957   1.000
    N184    N    0.78481   0.45193   0.85726   1.000
    N185    N    0.56960   0.45854   0.64480   1.000
    N186    N    0.51925   0.45737   0.69547   1.000
    C187    C    0.24514   0.47201   0.75780   1.000
    C188    C    0.16478   0.47059   0.67578   1.000
    H189    H    0.27377   0.47387   0.80743   1.000
    H190    H    0.11742   0.47035   0.64406   1.000
    C191    C    0.04649   0.47335   0.79577   1.000
    C192    C    0.12836   0.47288   0.87690   1.000
    H193    H    0.01265   0.47539   0.74972   1.000
    H194    H    0.17488   0.47547   0.90962   1.000
    C195    C    0.17248   0.47350   0.74909   1.000
    C196    C    0.11957   0.47457   0.80365   1.000
    N197    N    0.22794   0.46732   0.64422   1.000
    N198    N    0.27812   0.46857   0.69531   1.000
    N199    N    0.06606   0.46899   0.90941   1.000
    N200    N    0.01578   0.46989   0.85889   1.000
    C201    C    0.16559   0.61743   0.53153   1.000
    C202    C    0.24728   0.69796   0.52833   1.000
    H203    H    0.11696   0.58774   0.53331   1.000
    H204    H    0.27783   0.74625   0.52806   1.000
    C205    C    0.12823   0.81842   0.53216   1.000
    C206    C    0.04758   0.73683   0.53352   1.000
    H207    H    0.17489   0.85098   0.52906   1.000
    H208    H    0.01486   0.69008   0.52995   1.000
    C209    C    0.17422   0.69051   0.53121   1.000
    C210    C    0.12059   0.74482   0.53274   1.000
    N211    N    0.27918   0.63518   0.52738   1.000
    N212    N    0.22791   0.58429   0.52801   1.000
    N213    N    0.01563   0.79981   0.53379   1.000
    N214    N    0.06587   0.85029   0.53368   1.000
    C215    C    0.24754   0.23190   0.52617   1.000
    C216    C    0.16654   0.31295   0.52349   1.000
    H217    H    0.27785   0.18366   0.52612   1.000
    H218    H    0.11813   0.34292   0.52229   1.000
    C219    C    0.04808   0.19435   0.52260   1.000
    C220    C    0.12836   0.11272   0.52518   1.000
    H221    H    0.01599   0.24137   0.52728   1.000
    H222    H    0.17468   0.07988   0.52644   1.000
    C223    C    0.17468   0.23987   0.52313   1.000
    C224    C    0.12095   0.18604   0.52244   1.000
    N225    N    0.22896   0.34574   0.52733   1.000
    N226    N    0.27978   0.29453   0.52785   1.000
    N227    N    0.06608   0.08093   0.52670   1.000
    N228    N    0.01620   0.13145   0.52560   1.000
    C229    C    0.24516   0.45331   0.29260   1.000
    C230    C    0.16366   0.45761   0.37373   1.000
    H231    H    0.27452   0.44853   0.24355   1.000
    H232    H    0.11554   0.45872   0.40455   1.000
    C233    C    0.04706   0.45509   0.25153   1.000
    C234    C    0.12970   0.45143   0.17087   1.000
    H235    H    0.01207   0.45592   0.29680   1.000
    H236    H    0.17677   0.44727   0.13884   1.000
    C237    C    0.17225   0.45286   0.30027   1.000
    C238    C    0.12011   0.45194   0.24455   1.000
    N239    N    0.22633   0.46188   0.40629   1.000
    N240    N    0.27736   0.45885   0.35530   1.000
    N241    N    0.06777   0.45532   0.13800   1.000
    N242    N    0.01711   0.45682   0.18820   1.000
    C243    C    0.75631   0.47077   0.25579   1.000
    C244    C    0.67501   0.46930   0.17471   1.000
    H245    H    0.78942   0.47035   0.30242   1.000
    H246    H    0.62844   0.46911   0.14184   1.000
    C247    C    0.55615   0.47064   0.29339   1.000
    C248    C    0.63536   0.47008   0.37609   1.000
    H249    H    0.52663   0.46711   0.24434   1.000
    H250    H    0.68292   0.46937   0.40744   1.000
    C251    C    0.68308   0.47081   0.24849   1.000
    C252    C    0.62886   0.47103   0.30237   1.000
    N253    N    0.73720   0.46806   0.14189   1.000
    N254    N    0.78774   0.46931   0.19246   1.000
    N255    N    0.57245   0.46979   0.40813   1.000
    N256    N    0.52269   0.47016   0.35614   1.000
    C257    C    0.67478   0.11453   0.53505   1.000
    C258    C    0.75605   0.19565   0.53295   1.000
    H259    H    0.62790   0.08256   0.53946   1.000
    H260    H    0.78941   0.24198   0.53121   1.000
    C261    C    0.63596   0.31449   0.53137   1.000
    C262    C    0.55650   0.23206   0.53820   1.000
    H263    H    0.68351   0.34563   0.52738   1.000
    H264    H    0.52787   0.18268   0.53930   1.000
    C265    C    0.68299   0.18787   0.53415   1.000
    C266    C    0.62910   0.24134   0.53468   1.000
    N267    N    0.78727   0.13283   0.53331   1.000
    N268    N    0.73683   0.08220   0.53405   1.000
    N269    N    0.52310   0.29438   0.53473   1.000
    N270    N    0.57297   0.34599   0.53232   1.000
    C271    C    0.67647   0.61383   0.02258   1.000
    C272    C    0.75736   0.69490   0.02704   1.000
    H273    H    0.62946   0.58234   0.01785   1.000
    H274    H    0.78963   0.74199   0.02253   1.000
    C275    C    0.63714   0.81407   0.01623   1.000
    C276    C    0.55759   0.73157   0.01570   1.000
    H277    H    0.68431   0.84600   0.01754   1.000
    H278    H    0.52761   0.68302   0.01486   1.000
    C279    C    0.68473   0.68720   0.02032   1.000
    C280    C    0.63049   0.74073   0.01575   1.000
    N281    N    0.78820   0.63156   0.03450   1.000
    N282    N    0.73750   0.58112   0.03272   1.000
    N283    N    0.52397   0.79347   0.01680   1.000
    N284    N    0.57399   0.84526   0.01717   1.000
    C285    C    0.23854   0.73737   0.00341   1.000
    C286    C    0.16127   0.82126   0.01208   1.000
    H287    H    0.26619   0.68747   0.99994   1.000
    H288    H    0.11499   0.85441   0.01628   1.000
    C289    C    0.04144   0.69647   0.01565   1.000
    C290    C    0.12612   0.61976   0.00730   1.000
    H291    H    0.00622   0.74135   0.01533   1.000
    H292    H    0.17475   0.59172   0.99773   1.000
    C293    C    0.16625   0.74800   0.00446   1.000
    C294    C    0.11412   0.69258   0.00777   1.000
    N295    N    0.22535   0.85048   0.01575   1.000
    N296    N    0.27394   0.79822   0.01003   1.000
    N297    N    0.06636   0.58364   0.01596   1.000
    N298    N    0.01402   0.63181   0.02158   1.000
    C299    C    0.16721   0.10322   0.02437   1.000
    C300    C    0.24322   0.18931   0.02752   1.000
    H301    H    0.12201   0.06856   0.02043   1.000
    H302    H    0.27134   0.23869   0.02200   1.000
    C303    C    0.12798   0.30240   0.02095   1.000
    C304    C    0.04422   0.22366   0.01969   1.000
    H305    H    0.17728   0.33081   0.02211   1.000
    H306    H    0.01039   0.17771   0.02321   1.000
    C307    C    0.17126   0.17665   0.02232   1.000
    C308    C    0.11727   0.22957   0.01980   1.000
    N309    N    0.27901   0.12894   0.03387   1.000
    N310    N    0.23123   0.07567   0.03177   1.000
    N311    N    0.01524   0.28785   0.02027   1.000
    N312    N    0.06703   0.33708   0.02100   1.000
    C313    C    0.76227   0.22052   0.00845   1.000
    C314    C    0.68006   0.30016   0.01066   1.000
    H315    H    0.79472   0.17339   0.00924   1.000
    H316    H    0.63185   0.33006   0.01350   1.000
    C317    C    0.56217   0.18747   0.01539   1.000
    C318    C    0.63818   0.10178   0.01465   1.000
    H319    H    0.53405   0.23695   0.01434   1.000
    H320    H    0.68321   0.06726   0.00971   1.000
    C321    C    0.68940   0.22701   0.00898   1.000
    C322    C    0.63432   0.17493   0.01087   1.000
    N323    N    0.74109   0.33427   0.01119   1.000
    N324    N    0.79238   0.28513   0.00935   1.000
    N325    N    0.57402   0.07401   0.02148   1.000
    N326    N    0.52628   0.12737   0.02153   1.000
    C327    C    0.67351   0.97332   0.37005   1.000
    C328    C    0.75818   0.97214   0.29223   1.000
    H329    H    0.62435   0.97458   0.39909   1.000
    H330    H    0.79233   0.97299   0.24639   1.000
    C331    C    0.64116   0.97170   0.16762   1.000
    C332    C    0.56059   0.96983   0.24996   1.000
    H333    H    0.68835   0.97439   0.13532   1.000
    H334    H    0.52966   0.97194   0.29806   1.000
    C335    C    0.68513   0.97538   0.29706   1.000
    C336    C    0.63335   0.97451   0.24114   1.000
    N337    N    0.78676   0.96796   0.35609   1.000
    N338    N    0.73428   0.96882   0.40524   1.000
    N339    N    0.52792   0.96315   0.18810   1.000
    N340    N    0.57807   0.96446   0.13606   1.000
    C341    C    0.16336   0.98443   0.16993   1.000
    C342    C    0.24194   0.98691   0.25348   1.000
    H343    H    0.11720   0.98507   0.13616   1.000
    H344    H    0.27110   0.98835   0.30258   1.000
    C345    C    0.12694   0.98793   0.37200   1.000
    C346    C    0.04308   0.98712   0.29349   1.000
    H347    H    0.17571   0.99086   0.40109   1.000
    H348    H    0.00950   0.98340   0.24702   1.000
    C349    C    0.16935   0.99106   0.24360   1.000
    C350    C    0.11612   0.99177   0.29874   1.000
    N351    N    0.27590   0.97715   0.19204   1.000
    N352    N    0.22677   0.97542   0.13984   1.000
    N353    N    0.01445   0.98027   0.35787   1.000
    N354    N    0.06635   0.98066   0.40660   1.000
    C355    C    0.23959   0.96784   0.79992   1.000
    C356    C    0.16219   0.97029   0.88536   1.000
    H357    H    0.26901   0.97038   0.75072   1.000
    H358    H    0.11553   0.97304   0.91849   1.000
    C359    C    0.04168   0.96802   0.76243   1.000
    C360    C    0.12563   0.96914   0.68339   1.000
    H361    H    0.00692   0.97544   0.80753   1.000
    H362    H    0.17443   0.97385   0.65415   1.000
    C363    C    0.16741   0.97365   0.81147   1.000
    C364    C    0.11443   0.97352   0.75675   1.000
    N365    N    0.22578   0.96244   0.91476   1.000
    N366    N    0.27416   0.96013   0.86104   1.000
    N367    N    0.06519   0.95931   0.64926   1.000
    N368    N    0.01317   0.95845   0.69836   1.000
    C369    C    0.67012   0.97920   0.67877   1.000
    C370    C    0.75381   0.98127   0.75775   1.000
    H371    H    0.62172   0.98023   0.64889   1.000
    H372    H    0.78792   0.98493   0.80365   1.000
    C373    C    0.63613   0.97568   0.87974   1.000
    C374    C    0.55562   0.97855   0.79803   1.000
    H375    H    0.68260   0.97718   0.91293   1.000
    H376    H    0.52455   0.98110   0.75024   1.000
    C377    C    0.68079   0.98325   0.75166   1.000
    C378    C    0.62834   0.98145   0.80654   1.000
    N379    N    0.78320   0.97447   0.69426   1.000
    N380    N    0.73151   0.97303   0.64469   1.000
    N381    N    0.52309   0.97084   0.85989   1.000
    N382    N    0.57326   0.96842   0.91067   1.000
    O383    O    0.50288   0.30120   0.36286   1.000
