#======================================================================

# CRYSTAL DATA

#----------------------------------------------------------------------

data_VESTA_phase_1


_chemical_name_common                  'D:\! BYU CALCULATION\Acidic MOF Patent'
_cell_length_a                         38.11373
_cell_length_b                         38.49112
_cell_length_c                         39.01606
_cell_angle_alpha                      90.11100
_cell_angle_beta                       89.94688
_cell_angle_gamma                      89.44962
_space_group_name_H-M_alt              'P 1'
_space_group_IT_number                 1

loop_
_space_group_symop_operation_xyz
   'x, y, z'
   'x+1/2, y+1/2, z'
   'x+1/2, y, z+1/2'
   'x, y+1/2, z+1/2'

loop_
   _atom_site_label
   _atom_site_occupancy
   _atom_site_fract_x
   _atom_site_fract_y
   _atom_site_fract_z
   _atom_site_adp_type
   _atom_site_B_iso_or_equiv
   _atom_site_type_symbol
   H0         1.0     0.824945      0.410380      0.496455     Biso  1.000000 H
   H1         1.0     0.674110      0.267860      0.495430     Biso  1.000000 H
   H2         1.0     0.324700      0.264740      0.137660     Biso  1.000000 H
   H3         1.0     0.678980      0.414315      0.640035     Biso  1.000000 H
   H4         1.0     0.360805      0.624795      0.677550     Biso  1.000000 H
   H5         1.0     0.347815      0.232685      0.274780     Biso  1.000000 H
   H6         1.0     0.535205      0.552890      0.931335     Biso  1.000000 H
   H7         1.0     0.461380      0.124610      0.431070     Biso  1.000000 H
   H8         1.0     0.536560      0.624675      0.706765     Biso  1.000000 H
   H9         1.0     0.463985      0.553030      0.706855     Biso  1.000000 H
   H10        1.0     0.615840      0.554280      0.853780     Biso  1.000000 H
   H11        1.0     0.381580      0.123240      0.352670     Biso  1.000000 H
   H12        1.0     0.616640      0.625060      0.784640     Biso  1.000000 H
   H13        1.0     0.381505      0.551860      0.782565     Biso  1.000000 H
   H14        1.0     0.538080      0.473550      0.852950     Biso  1.000000 H
   H15        1.0     0.460480      0.203050      0.352250     Biso  1.000000 H
   H16        1.0     0.534880      0.703355      0.785565     Biso  1.000000 H
   H17        1.0     0.464050      0.474300      0.785310     Biso  1.000000 H
   H18        1.0     0.717950      0.379010      0.455910     Biso  1.000000 H
   H19        1.0     0.778935      0.799305      0.956940     Biso  1.000000 H
   H20        1.0     0.221175      0.299655      0.177390     Biso  1.000000 H
   H21        1.0     0.279765      0.377835      0.177250     Biso  1.000000 H
   H22        1.0     0.635335      0.369410      0.530845     Biso  1.000000 H
   H23        1.0     0.364540      0.808085      0.528615     Biso  1.000000 H
   H24        1.0     0.634600      0.310380      0.606960     Biso  1.000000 H
   H25        1.0     0.364985      0.366220      0.105155     Biso  1.000000 H
   H26        1.0     0.709445      0.453050      0.538905     Biso  1.000000 H
   H27        1.0     0.288260      0.726615      0.540565     Biso  1.000000 H
   H28        1.0     0.208085      0.225065      0.095800     Biso  1.000000 H
   H29        1.0     0.790695      0.450775      0.594150     Biso  1.000000 H
   C30        1.0     0.589720      0.590745      0.908245     Biso  1.000000 C
   C31        1.0     0.406695      0.086905      0.406800     Biso  1.000000 C
   C32        1.0     0.592610      0.588255      0.730475     Biso  1.000000 C
   C33        1.0     0.407235      0.589170      0.729555     Biso  1.000000 C
   C34        1.0     0.577485      0.556765      0.894590     Biso  1.000000 C
   C35        1.0     0.419530      0.120700      0.393680     Biso  1.000000 C
   C36        1.0     0.578895      0.621920      0.743575     Biso  1.000000 C
   C37        1.0     0.420730      0.555470      0.742760     Biso  1.000000 C
   C38        1.0     0.547960      0.540895      0.909035     Biso  1.000000 C
   C39        1.0     0.449120      0.136285      0.408445     Biso  1.000000 C
   C40        1.0     0.548755      0.636950      0.729045     Biso  1.000000 C
   C41        1.0     0.451425      0.540715      0.728870     Biso  1.000000 C
   C42        1.0     0.593135      0.497990      0.817465     Biso  1.000000 C
   C43        1.0     0.405120      0.178420      0.316060     Biso  1.000000 C
   C44        1.0     0.591240      0.680625      0.820845     Biso  1.000000 C
   C45        1.0     0.407130      0.497535      0.820105     Biso  1.000000 C
   C46        1.0     0.579155      0.511615      0.850480     Biso  1.000000 C
   C47        1.0     0.418945      0.165285      0.349320     Biso  1.000000 C
   C48        1.0     0.578105      0.666785      0.787780     Biso  1.000000 C
   C49        1.0     0.420790      0.510890      0.787010     Biso  1.000000 C
   C50        1.0     0.500110      0.497210      0.907790     Biso  1.000000 C
   C51        1.0     0.497575      0.179535      0.407660     Biso  1.000000 C
   C52        1.0     0.498830      0.679035      0.729895     Biso  1.000000 C
   C53        1.0     0.501515      0.498380      0.731035     Biso  1.000000 C
   C54        1.0     0.533620      0.510975      0.894375     Biso  1.000000 C
   C55        1.0     0.464005      0.165895      0.393820     Biso  1.000000 C
   C56        1.0     0.532830      0.666335      0.743665     Biso  1.000000 C
   C57        1.0     0.467100      0.511415      0.743825     Biso  1.000000 C
   C58        1.0     0.593150      0.541730      0.865570     Biso  1.000000 C
   C59        1.0     0.404325      0.135635      0.364520     Biso  1.000000 C
   C60        1.0     0.593655      0.637230      0.772705     Biso  1.000000 C
   C61        1.0     0.405165      0.540070      0.771415     Biso  1.000000 C
   C62        1.0     0.549590      0.496370      0.865190     Biso  1.000000 C
   C63        1.0     0.448570      0.180345      0.364305     Biso  1.000000 C
   C64        1.0     0.547760      0.681135      0.773085     Biso  1.000000 C
   C65        1.0     0.451420      0.496585      0.772835     Biso  1.000000 C
   C66        1.0     0.663325      0.338490      0.474345     Biso  1.000000 C
   C67        1.0     0.835205      0.839205      0.973610     Biso  1.000000 C
   C68        1.0     0.664555      0.340345      0.662140     Biso  1.000000 C
   C69        1.0     0.335180      0.336070      0.160170     Biso  1.000000 C
   C70        1.0     0.674830      0.371130      0.491080     Biso  1.000000 C
   C71        1.0     0.323360      0.806925      0.490665     Biso  1.000000 C
   C72        1.0     0.176125      0.308045      0.144630     Biso  1.000000 C
   C73        1.0     0.323880      0.368765      0.143275     Biso  1.000000 C
   C74        1.0     0.704155      0.388800      0.478635     Biso  1.000000 C
   C75        1.0     0.793165      0.789770      0.979455     Biso  1.000000 C
   C76        1.0     0.206050      0.290005      0.155575     Biso  1.000000 C
   C77        1.0     0.294165      0.387080      0.154805     Biso  1.000000 C
   C78        1.0     0.653670      0.425210      0.570310     Biso  1.000000 C
   C79        1.0     0.346820      0.753470      0.569190     Biso  1.000000 C
   C80        1.0     0.650275      0.253280      0.567555     Biso  1.000000 C
   C81        1.0     0.847880      0.421570      0.564800     Biso  1.000000 C
   C82        1.0     0.670035      0.413175      0.537780     Biso  1.000000 C
   C83        1.0     0.328860      0.765420      0.537560     Biso  1.000000 C
   C84        1.0     0.168735      0.265800      0.098575     Biso  1.000000 C
   C85        1.0     0.330145      0.410225      0.096630     Biso  1.000000 C
   C86        1.0     0.749315      0.434820      0.482795     Biso  1.000000 C
   C87        1.0     0.747165      0.744605      0.985570     Biso  1.000000 C
   C88        1.0     0.249535      0.241765      0.150950     Biso  1.000000 C
   C89        1.0     0.750050      0.435035      0.649375     Biso  1.000000 C
   C90        1.0     0.716810      0.418380      0.495480     Biso  1.000000 C
   C91        1.0     0.280370      0.760795      0.497075     Biso  1.000000 C
   C92        1.0     0.217455      0.259745      0.138600     Biso  1.000000 C
   C93        1.0     0.282255      0.416840      0.137535     Biso  1.000000 C
   C94        1.0     0.657855      0.383545      0.520650     Biso  1.000000 C
   C95        1.0     0.341175      0.794465      0.519620     Biso  1.000000 C
   C96        1.0     0.657635      0.295830      0.615985     Biso  1.000000 C
   C97        1.0     0.341895      0.380655      0.114330     Biso  1.000000 C
   C98        1.0     0.699565      0.430395      0.525050     Biso  1.000000 C
   C99        1.0     0.298350      0.748830      0.526200     Biso  1.000000 C
   C100       1.0     0.198915      0.248040      0.109925     Biso  1.000000 C
   C101       1.0     0.800280      0.428105      0.608335     Biso  1.000000 C
   S102       1.0     0.632290      0.601260      0.899740     Biso  1.000000 S
   S103       1.0     0.363565      0.077545      0.400350     Biso  1.000000 S
   S104       1.0     0.635395      0.578665      0.738100     Biso  1.000000 S
   S105       1.0     0.363680      0.598065      0.734895     Biso  1.000000 S
   S106       1.0     0.302675      0.312525      0.178380     Biso  1.000000 S
   S107       1.0     0.197045      0.363960      0.181825     Biso  1.000000 S
   S108       1.0     0.802970      0.363320      0.454830     Biso  1.000000 S
   S109       1.0     0.694710      0.315505      0.453225     Biso  1.000000 S
   O110       1.0     0.326630      0.202350      0.196200     Biso  1.000000 O
   O111       1.0     0.594830      0.186550      0.417300     Biso  1.000000 O
   O112       1.0     0.900750      0.490915      0.413985     Biso  1.000000 O
   O113       1.0     0.598740      0.490640      0.722790     Biso  1.000000 O
   O114       1.0     0.399280      0.184940      0.221480     Biso  1.000000 O
   S115       1.0     0.586435      0.455070      0.808565     Biso  1.000000 S
   S116       1.0     0.414960      0.220490      0.305900     Biso  1.000000 S
   S117       1.0     0.581050      0.722530      0.830480     Biso  1.000000 S
   S118       1.0     0.418515      0.455780      0.830535     Biso  1.000000 S
   S119       1.0     0.489870      0.507080      0.949070     Biso  1.000000 S
   S120       1.0     0.506220      0.172070      0.449910     Biso  1.000000 S
   S121       1.0     0.489915      0.669170      0.688405     Biso  1.000000 S
   S122       1.0     0.511605      0.508970      0.689675     Biso  1.000000 S
   S123       1.0     0.726645      0.457395      0.619750     Biso  1.000000 S
   S124       1.0     0.274215      0.220510      0.120385     Biso  1.000000 S
   S125       1.0     0.222205      0.225950      0.016445     Biso  1.000000 S
   S126       1.0     0.774370      0.455245      0.513585     Biso  1.000000 S
   S127       1.0     0.370135      0.390685      0.042550     Biso  1.000000 S
   S128       1.0     0.628420      0.284615      0.544205     Biso  1.000000 S
   S129       1.0     0.369385      0.283585      0.091590     Biso  1.000000 S
   S130       1.0     0.634255      0.394035      0.594290     Biso  1.000000 S
   O131       1.0     0.381920      0.259460      0.202540     Biso  1.000000 O
   O132       1.0     0.387165      0.704090      0.648795     Biso  1.000000 O
   S133       1.0     0.620375      0.328200      0.479105     Biso  1.000000 S
   S134       1.0     0.378445      0.848565      0.476540     Biso  1.000000 S
   S135       1.0     0.621800      0.350595      0.659055     Biso  1.000000 S
   S136       1.0     0.378440      0.326040      0.157530     Biso  1.000000 S
   S137       1.0     0.438705      0.614815      0.712820     Biso  1.000000 S
   S138       1.0     0.561755      0.562885      0.711690     Biso  1.000000 S
   S139       1.0     0.438250      0.061715      0.424765     Biso  1.000000 S
   S140       1.0     0.559265      0.615020      0.928535     Biso  1.000000 S
   O141       1.0     0.436590      0.725770      0.685010     Biso  1.000000 O
   O142       1.0     0.659400      0.253215      0.480675     Biso  1.000000 O
   O143       1.0     0.839425      0.425120      0.481605     Biso  1.000000 O
   O144       1.0     0.664325      0.429000      0.655075     Biso  1.000000 O
   O145       1.0     0.338930      0.249845      0.152805     Biso  1.000000 O
   S146       1.0     0.657910      0.467930      0.580010     Biso  1.000000 S
   S147       1.0     0.342200      0.710720      0.579280     Biso  1.000000 S
   S148       1.0     0.154795      0.210885      0.058070     Biso  1.000000 S
   S149       1.0     0.843280      0.464275      0.554525     Biso  1.000000 S
   S150       1.0     0.759010      0.429335      0.441185     Biso  1.000000 S
   S151       1.0     0.737660      0.748115      0.943295     Biso  1.000000 S
   S152       1.0     0.258455      0.246445      0.192820     Biso  1.000000 S
   S153       1.0     0.240555      0.430880      0.191755     Biso  1.000000 S
   S154       1.0     0.526670      0.476920      0.759490     Biso  1.000000 S
   S155       1.0     0.472370      0.699515      0.758805     Biso  1.000000 S
   S156       1.0     0.523460      0.199065      0.378375     Biso  1.000000 S
   S157       1.0     0.475230      0.475385      0.878725     Biso  1.000000 S
   S158       1.0     0.384175      0.526350      0.843655     Biso  1.000000 S
   S159       1.0     0.612710      0.651000      0.845570     Biso  1.000000 S
   S160       1.0     0.383220      0.149580      0.292020     Biso  1.000000 S
   S161       1.0     0.612350      0.528200      0.792590     Biso  1.000000 S
   O162       1.0     0.362395      0.650255      0.678710     Biso  1.000000 O
   O163       1.0     0.356020      0.223585      0.251665     Biso  1.000000 O
   Zr164      1.0     0.347985      0.168590      0.233335     Biso  1.000000 Zr
   Zr165      1.0     0.411715      0.232635      0.237720     Biso  1.000000 Zr
   Zr166      1.0     0.420025      0.669890      0.674865     Biso  1.000000 Zr
   Zr167      1.0     0.398620      0.258550      0.151290     Biso  1.000000 Zr
   Zr168      1.0     0.336685      0.192460      0.145715     Biso  1.000000 Zr
   Zr169      1.0     0.327960      0.254550      0.209600     Biso  1.000000 Zr
   H170       1.0     0.461315      0.731940      0.682535     Biso  1.000000 H
   O171       1.0     0.339205      0.296290      0.248435     Biso  1.000000 O
   O172       1.0     0.291250      0.258960      0.251160     Biso  1.000000 O
   S173       1.0     0.311290      0.283695      0.275465     Biso  1.000000 S
   O174       1.0     0.330270      0.262460      0.301160     Biso  1.000000 O
   O175       1.0     0.289815      0.311720      0.288195     Biso  1.000000 O
   O176       1.0     0.466550      0.616265      0.604345     Biso  1.000000 O
   S177       1.0     0.438925      0.641685      0.607560     Biso  1.000000 S
   O178       1.0     0.452275      0.674655      0.627270     Biso  1.000000 O
   O179       1.0     0.411650      0.629955      0.636225     Biso  1.000000 O
   O180       1.0     0.419010      0.651845      0.577375     Biso  1.000000 O
   O181       1.0     0.399630      0.283510      0.268580     Biso  1.000000 O
   H182       1.0     0.395360      0.279490      0.293120     Biso  1.000000 H
   O183       1.0     0.441315      0.788115      0.650050     Biso  1.000000 O
   H184       1.0     0.444980      0.312155      0.156885     Biso  1.000000 H
   H185       1.0     0.374890      0.292370      0.259820     Biso  1.000000 H
   O186       1.0     0.457045      0.273010      0.236845     Biso  1.000000 O
   H187       1.0     0.447335      0.291205      0.252140     Biso  1.000000 H
   O188       1.0     0.433600      0.736625      0.609385     Biso  1.000000 O
   H189       1.0     0.441730      0.711610      0.612610     Biso  1.000000 H
   O190       1.0     0.351400      0.645205      0.611875     Biso  1.000000 O
   H191       1.0     0.358445      0.650310      0.588055     Biso  1.000000 H
   O192       1.0     0.291640      0.149285      0.146575     Biso  1.000000 O
   H193       1.0     0.271690      0.162285      0.136175     Biso  1.000000 H
   H194       1.0     0.299840      0.632030      0.629550     Biso  1.000000 H
   O195       1.0     0.308345      0.170050      0.266775     Biso  1.000000 O
   O196       1.0     0.300605      0.134860      0.215335     Biso  1.000000 O
   H197       1.0     0.290975      0.139755      0.192320     Biso  1.000000 H
   H198       1.0     0.284820      0.144555      0.233155     Biso  1.000000 H
   H199       1.0     0.375180      0.636190      0.622030     Biso  1.000000 H
   H200       1.0     0.478635      0.263785      0.247330     Biso  1.000000 H
   H201       1.0     0.305925      0.182850      0.288215     Biso  1.000000 H
   H202       1.0     0.454165      0.751670      0.609525     Biso  1.000000 H
   O203       1.0     0.747745      0.502585      0.747130     Biso  1.000000 O
   H204       1.0     0.710800      0.541995      0.651645     Biso  1.000000 H
   O205       1.0     0.711315      0.521375      0.666250     Biso  1.000000 O
   S206       1.0     0.718775      0.523930      0.759305     Biso  1.000000 S
   O207       1.0     0.725195      0.550695      0.784290     Biso  1.000000 O
   H208       1.0     0.709455      0.528990      0.691225     Biso  1.000000 H
   O209       1.0     0.696985      0.538895      0.728380     Biso  1.000000 O
   O210       1.0     0.667640      0.530160      0.617160     Biso  1.000000 O
   H211       1.0     0.638060      0.551175      0.675065     Biso  1.000000 H
   Zr212      1.0     0.667230      0.487945      0.646735     Biso  1.000000 Zr
   H213       1.0     0.658250      0.533935      0.594265     Biso  1.000000 H
   O214       1.0     0.635280      0.526670      0.681060     Biso  1.000000 O
   H215       1.0     0.569485      0.571315      0.646250     Biso  1.000000 H
   O216       1.0     0.580320      0.549875      0.637385     Biso  1.000000 O
   Zr217      1.0     0.647650      0.509015      0.735655     Biso  1.000000 Zr
   O218       1.0     0.688805      0.498520      0.772725     Biso  1.000000 O
   O219       1.0     0.671270      0.476045      0.700325     Biso  1.000000 O
   H220       1.0     0.564420      0.539925      0.619915     Biso  1.000000 H
   O221       1.0     0.614545      0.473535      0.648040     Biso  1.000000 O
   O222       1.0     0.210375      0.437520      0.257345     Biso  1.000000 O
   Zr223      1.0     0.580760      0.504095      0.676385     Biso  1.000000 Zr
   H224       1.0     0.201510      0.461610      0.266430     Biso  1.000000 H
   Zr225      1.0     0.673490      0.425820      0.711530     Biso  1.000000 Zr
   H226       1.0     0.522110      0.492160      0.631150     Biso  1.000000 H
   O227       1.0     0.547390      0.494265      0.626605     Biso  1.000000 O
   H228       1.0     0.554560      0.469165      0.617985     Biso  1.000000 H
   Zr229      1.0     0.605895      0.420205      0.652920     Biso  1.000000 Zr
   O230       1.0     0.642515      0.451690      0.754705     Biso  1.000000 O
   O231       1.0     0.564375      0.433255      0.614200     Biso  1.000000 O
   O232       1.0     0.172935      0.379995      0.253210     Biso  1.000000 O
   H233       1.0     0.644920      0.449285      0.779655     Biso  1.000000 H
   O234       1.0     0.621340      0.417800      0.703860     Biso  1.000000 O
   O235       1.0     0.565080      0.449695      0.685585     Biso  1.000000 O
   H236       1.0     0.190920      0.387025      0.269935     Biso  1.000000 H
   Zr237      1.0     0.585320      0.440445      0.738985     Biso  1.000000 Zr
   O238       1.0     0.603330      0.391715      0.770835     Biso  1.000000 O
   H239       1.0     0.126215      0.381330      0.264345     Biso  1.000000 H
   H240       1.0     0.182840      0.360280      0.239720     Biso  1.000000 H
   O241       1.0     0.562200      0.385595      0.651115     Biso  1.000000 O
   H242       1.0     0.540710      0.442670      0.677610     Biso  1.000000 H
   S243       1.0     0.536570      0.406595      0.628215     Biso  1.000000 S
   O244       1.0     0.512100      0.426145      0.650705     Biso  1.000000 O
   O245       1.0     0.521360      0.386280      0.601290     Biso  1.000000 O
   H246       1.0     0.584115      0.377620      0.761035     Biso  1.000000 H
   O247       1.0     0.549980      0.402380      0.738050     Biso  1.000000 O
   H248       1.0     0.528500      0.400395      0.724665     Biso  1.000000 H
   H249       1.0     0.235020      0.442890      0.251840     Biso  1.000000 H
   O250       1.0     0.564360      0.333355      0.405355     Biso  1.000000 O
   H251       1.0     0.663785      0.303580      0.370875     Biso  1.000000 H
   O252       1.0     0.647965      0.301075      0.390440     Biso  1.000000 O
   S253       1.0     0.553225      0.304450      0.384305     Biso  1.000000 S
   O254       1.0     0.527690      0.310235      0.357665     Biso  1.000000 O
   H255       1.0     0.623080      0.298250      0.381630     Biso  1.000000 H
   O256       1.0     0.585905      0.283920      0.369895     Biso  1.000000 O
   O257       1.0     0.701115      0.759840      0.882115     Biso  1.000000 O
   H258       1.0     0.644330      0.728025      0.859665     Biso  1.000000 H
   Zr259      1.0     0.669860      0.257050      0.422680     Biso  1.000000 Zr
   H260       1.0     0.726085      0.755970      0.878175     Biso  1.000000 H
   O261       1.0     0.637540      0.724710      0.883640     Biso  1.000000 O
   H262       1.0     0.677695      0.663365      0.841040     Biso  1.000000 H
   O263       1.0     0.686075      0.672865      0.862910     Biso  1.000000 O
   Zr264      1.0     0.580400      0.234845      0.399295     Biso  1.000000 Zr
   O265       1.0     0.540335      0.274365      0.409280     Biso  1.000000 O
   O266       1.0     0.614295      0.259190      0.432995     Biso  1.000000 O
   H267       1.0     0.704355      0.656990      0.871985     Biso  1.000000 H
   O268       1.0     0.670010      0.704535      0.937095     Biso  1.000000 O
   O269       1.0     0.554260      0.295810      0.469320     Biso  1.000000 O
   Zr270      1.0     0.643845      0.670690      0.906155     Biso  1.000000 Zr
   H271       1.0     0.545680      0.286605      0.445495     Biso  1.000000 H
   Zr272      1.0     0.601405      0.260515      0.482160     Biso  1.000000 Zr
   H273       1.0     0.690535      0.613100      0.920245     Biso  1.000000 H
   O274       1.0     0.694875      0.638095      0.917420     Biso  1.000000 O
   H275       1.0     0.703070      0.645715      0.942105     Biso  1.000000 H
   Zr276      1.0     0.663825      0.195345      0.489490     Biso  1.000000 Zr
   O277       1.0     0.559300      0.228695      0.455085     Biso  1.000000 O
   O278       1.0     0.205830      0.656035      0.477585     Biso  1.000000 O
   O279       1.0     0.557420      0.257485      0.526065     Biso  1.000000 O
   H280       1.0     0.533540      0.229885      0.456495     Biso  1.000000 H
   O281       1.0     0.610930      0.209015      0.490345     Biso  1.000000 O
   O282       1.0     0.632870      0.654130      0.959460     Biso  1.000000 O
   H283       1.0     0.539945      0.275090      0.519115     Biso  1.000000 H
   Zr284      1.0     0.577065      0.172780      0.466605     Biso  1.000000 Zr
   O285       1.0     0.541840      0.189115      0.513015     Biso  1.000000 O
   H286       1.0     0.547385      0.211265      0.524590     Biso  1.000000 H
   H287       1.0     0.570675      0.267160      0.545815     Biso  1.000000 H
   O288       1.0     0.166795      0.151885      0.023570     Biso  1.000000 O
   H289       1.0     0.641735      0.630295      0.966890     Biso  1.000000 H
   S290       1.0     0.192165      0.627650      0.503435     Biso  1.000000 S
   O291       1.0     0.171165      0.602715      0.483380     Biso  1.000000 O
   O292       1.0     0.219820      0.613510      0.524200     Biso  1.000000 O
   H293       1.0     0.549480      0.169210      0.527260     Biso  1.000000 H
   O294       1.0     0.575735      0.136170      0.502565     Biso  1.000000 O
   H295       1.0     0.585825      0.112835      0.502980     Biso  1.000000 H
   H296       1.0     0.559720      0.320125      0.463405     Biso  1.000000 H
   O297       1.0     0.912340      0.520025      0.558235     Biso  1.000000 O
   H298       1.0     0.454240      0.923260      0.526610     Biso  1.000000 H
   O299       1.0     0.433265      0.438165      0.026190     Biso  1.000000 O
   S300       1.0     0.934075      0.532250      0.530255     Biso  1.000000 S
   O301       1.0     0.960190      0.558075      0.536905     Biso  1.000000 O
   H302       1.0     0.440825      0.463270      0.023335     Biso  1.000000 H
   O303       1.0     0.950275      0.500705      0.509800     Biso  1.000000 O
   O304       1.0     0.441600      0.886015      0.485505     Biso  1.000000 O
   H305       1.0     0.962550      0.943970      0.954190     Biso  1.000000 H
   Zr306      1.0     0.899100      0.416450      0.484100     Biso  1.000000 Zr
   H307       1.0     0.445055      0.861935      0.478450     Biso  1.000000 H
   O308       1.0     0.937640      0.949745      0.951445     Biso  1.000000 O
   H309       1.0     0.480930      0.411780      0.891190     Biso  1.000000 H
   O310       1.0     0.959440      0.902030      0.901080     Biso  1.000000 O
   Zr311      1.0     0.919890      0.505835      0.461295     Biso  1.000000 Zr
   O312       1.0     0.908435      0.544890      0.500275     Biso  1.000000 O
   O313       1.0     0.887000      0.471035      0.485875     Biso  1.000000 O
   H314       1.0     0.950085      0.884605      0.884910     Biso  1.000000 H
   O315       1.0     0.883590      0.916065      0.932735     Biso  1.000000 O
   O316       1.0     0.847590      0.530235      0.522365     Biso  1.000000 O
   Zr317      1.0     0.913970      0.942965      0.898605     Biso  1.000000 Zr
   H318       1.0     0.871545      0.539215      0.512760     Biso  1.000000 H
   Zr319      1.0     0.836440      0.482700      0.488230     Biso  1.000000 Zr
   H320       1.0     0.899645      0.896875      0.842310     Biso  1.000000 H
   O321       1.0     0.903890      0.892300      0.866790     Biso  1.000000 O
   H322       1.0     0.879065      0.883510      0.875315     Biso  1.000000 H
   Zr323      1.0     0.829395      0.420685      0.424860     Biso  1.000000 Zr
   O324       1.0     0.861695      0.524725      0.455990     Biso  1.000000 O
   O325       1.0     0.843415      0.879530      0.886035     Biso  1.000000 O
   O326       1.0     0.789690      0.524850      0.484930     Biso  1.000000 O
   H327       1.0     0.859315      0.550180      0.457115     Biso  1.000000 H
   O328       1.0     0.827165      0.472760      0.437755     Biso  1.000000 O
   O329       1.0     0.858645      0.951895      0.883290     Biso  1.000000 O
   H330       1.0     0.796990      0.542115      0.502105     Biso  1.000000 H
   Zr331      1.0     0.849165      0.506700      0.401115     Biso  1.000000 Zr
   O332       1.0     0.800490      0.540215      0.417575     Biso  1.000000 O
   H333       1.0     0.790290      0.534325      0.440135     Biso  1.000000 H
   H334       1.0     0.771090      0.510255      0.495535     Biso  1.000000 H
   O335       1.0     0.794200      0.416005      0.382655     Biso  1.000000 O
   H336       1.0     0.851120      0.942725      0.859965     Biso  1.000000 H
   S337       1.0     0.815800      0.891920      0.858490     Biso  1.000000 S
   O338       1.0     0.834620      0.913750      0.833480     Biso  1.000000 O
   O339       1.0     0.795730      0.863630      0.844890     Biso  1.000000 O
   H340       1.0     0.786010      0.530075      0.399045     Biso  1.000000 H
   O341       1.0     0.810120      0.504505      0.367035     Biso  1.000000 O
   H342       1.0     0.808235      0.490980      0.345985     Biso  1.000000 H
   H343       1.0     0.854320      0.525245      0.546325     Biso  1.000000 H
