# CIF file generated by openbabel 3.0.0, see http://openbabel.sf.net
data_I
_chemical_name_common 'D:\! BYU CALCULATION\Acidic MOF Patent\Periodic_51_00\UiO67_based_cell-pos-final.pdb'
_cell_length_a 29.346
_cell_length_b 28.659
_cell_length_c 28.682
_cell_angle_alpha 89.55
_cell_angle_beta 90.01
_cell_angle_gamma 89.97
loop_
    _atom_site_label
    _atom_site_type_symbol
    _atom_site_fract_x
    _atom_site_fract_y
    _atom_site_fract_z
    _atom_site_occupancy
    C0      C    0.27297   0.38145   0.48785   1.000
    C1      C    0.68593   0.68537   0.48844   1.000
    C2      C    0.68578   0.38033   0.52439   1.000
    C3      C    0.27422   0.68511   0.52617   1.000
    C4      C    0.82820   0.51644   0.79673   1.000
    C5      C    0.13700   0.51246   0.21478   1.000
    C6      C    0.82845   0.54927   0.21554   1.000
    C7      C    0.13704   0.55327   0.79784   1.000
    C8      C    0.27597   0.88122   0.99020   1.000
    C9      C    0.68950   0.18514   0.98563   1.000
    C10     C    0.68871   0.87892   0.02685   1.000
    C11     C    0.27569   0.18326   0.02650   1.000
    C12     C    0.82755   0.01455   0.29793   1.000
    C13     C    0.13574   0.01734   0.71444   1.000
    C14     C    0.82777   0.05137   0.71430   1.000
    C15     C    0.13585   0.05139   0.29786   1.000
    C16     C    0.77582   0.38100   0.99006   1.000
    C17     C    0.18976   0.68509   0.98549   1.000
    C18     C    0.18917   0.37995   0.02671   1.000
    C19     C    0.77581   0.68439   0.02259   1.000
    C20     C    0.32968   0.51663   0.29737   1.000
    C21     C    0.63456   0.51656   0.71416   1.000
    C22     C    0.32929   0.55334   0.71448   1.000
    C23     C    0.63454   0.54921   0.29779   1.000
    C24     C    0.77326   0.88161   0.48792   1.000
    C25     C    0.18598   0.18668   0.48813   1.000
    C26     C    0.18801   0.88161   0.52411   1.000
    C27     C    0.77468   0.18607   0.52568   1.000
    C28     C    0.33104   0.01785   0.79610   1.000
    C29     C    0.63524   0.01465   0.21425   1.000
    C30     C    0.33035   0.05096   0.21610   1.000
    C31     C    0.63492   0.05103   0.79662   1.000
    C32     C    0.23875   0.34824   0.48760   1.000
    C33     C    0.72056   0.71838   0.48802   1.000
    C34     C    0.72086   0.34790   0.52561   1.000
    C35     C    0.24027   0.71866   0.52777   1.000
    C36     C    0.79449   0.51628   0.76284   1.000
    C37     C    0.17060   0.51244   0.24863   1.000
    C38     C    0.79490   0.54963   0.24957   1.000
    C39     C    0.17057   0.55326   0.76385   1.000
    C40     C    0.24157   0.84791   0.98929   1.000
    C41     C    0.72319   0.21923   0.98535   1.000
    C42     C    0.72318   0.84584   0.02702   1.000
    C43     C    0.24119   0.21658   0.02678   1.000
    C44     C    0.79422   0.01426   0.26373   1.000
    C45     C    0.17040   0.01485   0.74736   1.000
    C46     C    0.79449   0.05148   0.74854   1.000
    C47     C    0.17043   0.05162   0.26484   1.000
    C48     C    0.74098   0.34827   0.98922   1.000
    C49     C    0.22423   0.71824   0.98532   1.000
    C50     C    0.22333   0.34631   0.02692   1.000
    C51     C    0.74114   0.71721   0.02416   1.000
    C52     C    0.29679   0.51568   0.26261   1.000
    C53     C    0.66881   0.51633   0.74753   1.000
    C54     C    0.29614   0.55355   0.74903   1.000
    C55     C    0.66888   0.54961   0.26456   1.000
    C56     C    0.73941   0.84780   0.48778   1.000
    C57     C    0.22068   0.21948   0.48785   1.000
    C58     C    0.22248   0.84848   0.52536   1.000
    C59     C    0.74045   0.21924   0.52752   1.000
    C60     C    0.29713   0.01484   0.76242   1.000
    C61     C    0.66851   0.01469   0.24860   1.000
    C62     C    0.29655   0.05170   0.24999   1.000
    C63     C    0.66878   0.05105   0.76301   1.000
    C64     C    0.35413   0.40523   0.50343   1.000
    C65     C    0.60409   0.66209   0.50284   1.000
    C66     C    0.60388   0.40136   0.50852   1.000
    C67     C    0.35486   0.66104   0.51152   1.000
    C68     C    0.85485   0.53341   0.87859   1.000
    C69     C    0.11054   0.52542   0.13263   1.000
    C70     C    0.85459   0.53243   0.13357   1.000
    C71     C    0.11055   0.54024   0.87995   1.000
    C72     C    0.35826   0.90357   0.00241   1.000
    C73     C    0.60859   0.15952   0.00181   1.000
    C74     C    0.60763   0.90316   0.01056   1.000
    C75     C    0.35735   0.15927   0.01081   1.000
    C76     C    0.85373   0.03037   0.37966   1.000
    C77     C    0.10825   0.03226   0.63226   1.000
    C78     C    0.85390   0.03805   0.63219   1.000
    C79     C    0.10824   0.03491   0.37966   1.000
    C80     C    0.85793   0.40383   0.00244   1.000
    C81     C    0.10884   0.66085   0.00181   1.000
    C82     C    0.10792   0.40440   0.01053   1.000
    C83     C    0.85777   0.66122   0.00987   1.000
    C84     C    0.35402   0.52941   0.37983   1.000
    C85     C    0.60724   0.53284   0.63205   1.000
    C86     C    0.35436   0.53741   0.63247   1.000
    C87     C    0.60744   0.53332   0.37997   1.000
    C88     C    0.85470   0.90569   0.50064   1.000
    C89     C    0.10458   0.16308   0.50298   1.000
    C90     C    0.10604   0.90357   0.50887   1.000
    C91     C    0.85596   0.16256   0.51166   1.000
    C92     C    0.35745   0.03480   0.87783   1.000
    C93     C    0.61025   0.02646   0.13152   1.000
    C94     C    0.35689   0.03356   0.13434   1.000
    C95     C    0.60859   0.03905   0.87887   1.000
    C96     C    0.31807   0.36946   0.50012   1.000
    C97     C    0.64074   0.69784   0.49991   1.000
    C98     C    0.64118   0.36671   0.51232   1.000
    C99     C    0.31916   0.69720   0.51410   1.000
    C100    C    0.81818   0.52947   0.84292   1.000
    C101    C    0.14697   0.52452   0.16809   1.000
    C102    C    0.81816   0.53616   0.16941   1.000
    C103    C    0.14708   0.54115   0.84453   1.000
    C104    C    0.32120   0.86848   0.00136   1.000
    C105    C    0.64445   0.19596   0.99860   1.000
    C106    C    0.64370   0.86712   0.01398   1.000
    C107    C    0.32070   0.19515   0.01377   1.000
    C108    C    0.81733   0.02744   0.34392   1.000
    C109    C    0.14523   0.03027   0.66800   1.000
    C110    C    0.81751   0.03903   0.66814   1.000
    C111    C    0.14524   0.03836   0.34423   1.000
    C112    C    0.82108   0.36843   0.00115   1.000
    C113    C    0.14488   0.69689   0.99846   1.000
    C114    C    0.14406   0.36836   0.01388   1.000
    C115    C    0.82098   0.69676   0.01095   1.000
    C116    C    0.31830   0.52795   0.34361   1.000
    C117    C    0.64405   0.52966   0.66786   1.000
    C118    C    0.31838   0.54061   0.66852   1.000
    C119    C    0.64410   0.53685   0.34430   1.000
    C120    C    0.81859   0.86959   0.49925   1.000
    C121    C    0.14092   0.19883   0.49984   1.000
    C122    C    0.14300   0.86861   0.51236   1.000
    C123    C    0.81969   0.19834   0.51372   1.000
    C124    C    0.32109   0.03170   0.84188   1.000
    C125    C    0.64617   0.02559   0.16746   1.000
    C126    C    0.32056   0.03683   0.17029   1.000
    C127    C    0.64512   0.03981   0.84327   1.000
    C128    C    0.24804   0.30146   0.49914   1.000
    C129    C    0.71195   0.76554   0.49897   1.000
    C130    C    0.71288   0.30060   0.51591   1.000
    C131    C    0.24982   0.76575   0.51651   1.000
    C132    C    0.74916   0.52876   0.77305   1.000
    C133    C    0.21575   0.52467   0.23719   1.000
    C134    C    0.74954   0.53721   0.23960   1.000
    C135    C    0.21576   0.54110   0.77518   1.000
    C136    C    0.25100   0.80041   0.99850   1.000
    C137    C    0.71356   0.26561   0.99787   1.000
    C138    C    0.71393   0.79950   0.01447   1.000
    C139    C    0.25019   0.26354   0.01461   1.000
    C140    C    0.74893   0.02663   0.27384   1.000
    C141    C    0.21585   0.02646   0.73609   1.000
    C142    C    0.74924   0.03907   0.73836   1.000
    C143    C    0.21563   0.03925   0.27624   1.000
    C144    C    0.74990   0.30099   0.99867   1.000
    C145    C    0.21504   0.76472   0.99783   1.000
    C146    C    0.21412   0.29944   0.01468   1.000
    C147    C    0.75021   0.76422   0.01391   1.000
    C148    C    0.25106   0.52533   0.27328   1.000
    C149    C    0.71385   0.52877   0.73651   1.000
    C150    C    0.25099   0.54111   0.73888   1.000
    C151    C    0.71411   0.53794   0.27583   1.000
    C152    C    0.74857   0.80061   0.49893   1.000
    C153    C    0.21173   0.26618   0.49911   1.000
    C154    C    0.21357   0.80100   0.51602   1.000
    C155    C    0.74970   0.26605   0.51633   1.000
    C156    C    0.25160   0.02655   0.77229   1.000
    C157    C    0.71382   0.02605   0.23747   1.000
    C158    C    0.25130   0.03915   0.23998   1.000
    C159    C    0.71397   0.03969   0.77452   1.000
    C160    C    0.27243   0.53750   0.35417   1.000
    C161    C    0.27289   0.52876   0.65820   1.000
    C162    C    0.68983   0.52771   0.35612   1.000
    C163    C    0.68950   0.54099   0.65639   1.000
    C164    C    0.82833   0.82206   0.50870   1.000
    C165    C    0.13427   0.82112   0.50354   1.000
    C166    C    0.82920   0.24532   0.50357   1.000
    C167    C    0.13146   0.24594   0.50870   1.000
    C168    C    0.27529   0.04257   0.85241   1.000
    C169    C    0.27487   0.02610   0.15944   1.000
    C170    C    0.69082   0.03040   0.85509   1.000
    C171    C    0.69193   0.03520   0.15617   1.000
    C172    C    0.82987   0.32100   0.01060   1.000
    C173    C    0.13495   0.32180   0.00181   1.000
    C174    C    0.82995   0.74398   0.00143   1.000
    C175    C    0.13555   0.74345   0.01056   1.000
    C176    C    0.77261   0.54097   0.85373   1.000
    C177    C    0.77257   0.52466   0.15882   1.000
    C178    C    0.19241   0.52902   0.85565   1.000
    C179    C    0.19221   0.53671   0.15683   1.000
    C180    C    0.33036   0.82109   0.01070   1.000
    C181    C    0.63459   0.82064   0.00185   1.000
    C182    C    0.32970   0.24200   0.00199   1.000
    C183    C    0.63472   0.24274   0.01046   1.000
    C184    C    0.77176   0.03916   0.35441   1.000
    C185    C    0.77209   0.02686   0.65754   1.000
    C186    C    0.19040   0.02669   0.35602   1.000
    C187    C    0.19082   0.03992   0.65625   1.000
    C188    C    0.32760   0.32252   0.51037   1.000
    C189    C    0.63316   0.31912   0.50329   1.000
    C190    C    0.32902   0.74418   0.50368   1.000
    C191    C    0.63161   0.74537   0.50852   1.000
    C192    C    0.23971   0.53687   0.31937   1.000
    C193    C    0.24002   0.52877   0.69289   1.000
    C194    C    0.72421   0.52843   0.32290   1.000
    C195    C    0.72386   0.54045   0.68972   1.000
    C196    C    0.79420   0.78842   0.50856   1.000
    C197    C    0.16884   0.78818   0.50458   1.000
    C198    C    0.79463   0.27832   0.50430   1.000
    C199    C    0.16624   0.27864   0.50856   1.000
    C200    C    0.24141   0.03949   0.81855   1.000
    C201    C    0.24114   0.02692   0.19351   1.000
    C202    C    0.72458   0.03025   0.82138   1.000
    C203    C    0.72492   0.03549   0.19072   1.000
    C204    C    0.79495   0.28842   0.00997   1.000
    C205    C    0.16918   0.28823   0.00216   1.000
    C206    C    0.79511   0.77667   0.00216   1.000
    C207    C    0.17005   0.77646   0.01029   1.000
    C208    C    0.73904   0.54082   0.81960   1.000
    C209    C    0.73929   0.52491   0.19323   1.000
    C210    C    0.22586   0.52894   0.82155   1.000
    C211    C    0.22572   0.53686   0.19086   1.000
    C212    C    0.29593   0.78802   0.00987   1.000
    C213    C    0.66913   0.78759   0.00206   1.000
    C214    C    0.29516   0.27518   0.00230   1.000
    C215    C    0.66844   0.27687   0.01011   1.000
    C216    C    0.73850   0.03904   0.31993   1.000
    C217    C    0.73894   0.02666   0.69216   1.000
    C218    C    0.22491   0.02698   0.32286   1.000
    C219    C    0.22521   0.03875   0.68951   1.000
    C220    C    0.29344   0.28924   0.50922   1.000
    C221    C    0.66831   0.28673   0.50441   1.000
    C222    C    0.29482   0.77764   0.50441   1.000
    C223    C    0.66642   0.77827   0.50838   1.000
    H224    H    0.26529   0.41775   0.47857   1.000
    H225    H    0.69364   0.64890   0.48049   1.000
    H226    H    0.69244   0.41690   0.53272   1.000
    H227    H    0.26671   0.64871   0.53513   1.000
    H228    H    0.86309   0.50611   0.78804   1.000
    H229    H    0.10194   0.50297   0.22384   1.000
    H230    H    0.86341   0.55956   0.22402   1.000
    H231    H    0.10201   0.56277   0.78878   1.000
    H232    H    0.26849   0.91779   0.98190   1.000
    H233    H    0.69756   0.14928   0.97559   1.000
    H234    H    0.69609   0.91492   0.03682   1.000
    H235    H    0.26838   0.14703   0.03630   1.000
    H236    H    0.86258   0.00502   0.28911   1.000
    H237    H    0.10099   0.00743   0.72410   1.000
    H238    H    0.86280   0.06093   0.72312   1.000
    H239    H    0.10119   0.06152   0.28792   1.000
    H240    H    0.76847   0.41763   0.98187   1.000
    H241    H    0.19697   0.64906   0.97538   1.000
    H242    H    0.19665   0.41588   0.03685   1.000
    H243    H    0.76857   0.64789   0.03127   1.000
    H244    H    0.36515   0.50842   0.28897   1.000
    H245    H    0.59978   0.50647   0.72368   1.000
    H246    H    0.36442   0.56283   0.72295   1.000
    H247    H    0.59961   0.55836   0.28785   1.000
    H248    H    0.76510   0.91787   0.47899   1.000
    H249    H    0.19349   0.15035   0.47955   1.000
    H250    H    0.19539   0.91811   0.53209   1.000
    H251    H    0.76704   0.14975   0.53471   1.000
    H252    H    0.36607   0.00812   0.78738   1.000
    H253    H    0.59995   0.00617   0.22314   1.000
    H254    H    0.36524   0.06125   0.22492   1.000
    H255    H    0.59971   0.05965   0.78749   1.000
    H256    H    0.20425   0.35854   0.47707   1.000
    H257    H    0.75516   0.70746   0.47868   1.000
    H258    H    0.75504   0.35930   0.53593   1.000
    H259    H    0.20558   0.70850   0.53764   1.000
    H260    H    0.80304   0.50498   0.72748   1.000
    H261    H    0.16227   0.50197   0.28440   1.000
    H262    H    0.80362   0.56128   0.28479   1.000
    H263    H    0.16214   0.56373   0.72811   1.000
    H264    H    0.20701   0.85849   0.97925   1.000
    H265    H    0.75764   0.20997   0.97402   1.000
    H266    H    0.75756   0.85542   0.03846   1.000
    H267    H    0.20685   0.20641   0.03786   1.000
    H268    H    0.80280   0.00302   0.22837   1.000
    H269    H    0.16254   0.00313   0.78295   1.000
    H270    H    0.80304   0.06279   0.78386   1.000
    H271    H    0.16289   0.06296   0.22907   1.000
    H272    H    0.70659   0.35955   0.97936   1.000
    H273    H    0.25858   0.70856   0.97388   1.000
    H274    H    0.25764   0.35603   0.03835   1.000
    H275    H    0.70696   0.70638   0.03521   1.000
    H276    H    0.30602   0.50493   0.22726   1.000
    H277    H    0.66099   0.50524   0.78330   1.000
    H278    H    0.30496   0.56448   0.78445   1.000
    H279    H    0.66103   0.56089   0.22879   1.000
    H280    H    0.70475   0.85796   0.47777   1.000
    H281    H    0.25521   0.20857   0.47826   1.000
    H282    H    0.25693   0.85890   0.53561   1.000
    H283    H    0.70594   0.20876   0.53764   1.000
    H284    H    0.30596   0.00273   0.72741   1.000
    H285    H    0.65962   0.00520   0.28451   1.000
    H286    H    0.30503   0.06353   0.28517   1.000
    H287    H    0.66039   0.06065   0.72699   1.000
    H288    H    0.26343   0.54727   0.38980   1.000
    H289    H    0.26437   0.51812   0.62267   1.000
    H290    H    0.69778   0.51798   0.39217   1.000
    H291    H    0.69733   0.55055   0.62023   1.000
    H292    H    0.86320   0.81228   0.51832   1.000
    H293    H    0.09955   0.81062   0.49440   1.000
    H294    H    0.86379   0.25503   0.49304   1.000
    H295    H    0.09653   0.25655   0.51682   1.000
    H296    H    0.26680   0.05391   0.88776   1.000
    H297    H    0.26656   0.01511   0.12398   1.000
    H298    H    0.69952   0.02220   0.89142   1.000
    H299    H    0.70071   0.04400   0.12008   1.000
    H300    H    0.86466   0.31022   0.01932   1.000
    H301    H    0.10064   0.31236   0.99020   1.000
    H302    H    0.86471   0.75492   0.99271   1.000
    H303    H    0.10127   0.75299   0.02224   1.000
    H304    H    0.76413   0.55109   0.88944   1.000
    H305    H    0.76388   0.51430   0.12325   1.000
    H306    H    0.20077   0.51911   0.89163   1.000
    H307    H    0.20042   0.54659   0.12081   1.000
    H308    H    0.36523   0.81069   0.01970   1.000
    H309    H    0.60021   0.81140   0.99034   1.000
    H310    H    0.36421   0.25230   0.99163   1.000
    H311    H    0.60016   0.25162   0.02186   1.000
    H312    H    0.76328   0.04962   0.38998   1.000
    H313    H    0.76361   0.01661   0.62191   1.000
    H314    H    0.19787   0.01621   0.39200   1.000
    H315    H    0.19874   0.04984   0.62020   1.000
    H316    H    0.36233   0.31263   0.52038   1.000
    H317    H    0.59875   0.30827   0.49353   1.000
    H318    H    0.36350   0.75390   0.49276   1.000
    H319    H    0.59661   0.75584   0.51654   1.000
    H320    H    0.20454   0.54650   0.32774   1.000
    H321    H    0.20526   0.51756   0.68460   1.000
    H322    H    0.75918   0.51966   0.33311   1.000
    H323    H    0.75881   0.54939   0.67968   1.000
    H324    H    0.80257   0.75230   0.51811   1.000
    H325    H    0.16149   0.75185   0.49573   1.000
    H326    H    0.80204   0.31445   0.49402   1.000
    H327    H    0.15842   0.31489   0.51734   1.000
    H328    H    0.20648   0.04939   0.82776   1.000
    H329    H    0.20635   0.01666   0.18423   1.000
    H330    H    0.75959   0.02107   0.83110   1.000
    H331    H    0.75994   0.04522   0.18169   1.000
    H332    H    0.80257   0.25206   0.01914   1.000
    H333    H    0.16142   0.25255   0.99100   1.000
    H334    H    0.80252   0.81295   0.99281   1.000
    H335    H    0.16292   0.81218   0.02158   1.000
    H336    H    0.70428   0.55139   0.82877   1.000
    H337    H    0.70440   0.51459   0.18427   1.000
    H338    H    0.26063   0.51844   0.83090   1.000
    H339    H    0.26037   0.54762   0.18148   1.000
    H340    H    0.30368   0.75162   0.01883   1.000
    H341    H    0.66189   0.75180   0.99086   1.000
    H342    H    0.30281   0.31116   0.99173   1.000
    H343    H    0.66014   0.31234   0.02127   1.000
    H344    H    0.70374   0.04993   0.32875   1.000
    H345    H    0.70422   0.01577   0.68331   1.000
    H346    H    0.25950   0.01657   0.33301   1.000
    H347    H    0.26006   0.04836   0.67954   1.000
    H348    H    0.30153   0.25302   0.51860   1.000
    H349    H    0.66168   0.25045   0.49486   1.000
    H350    H    0.30250   0.81363   0.49388   1.000
    H351    H    0.65854   0.81446   0.51731   1.000
    H352    H    0.91088   0.60293   0.94010   1.000
    H353    H    0.04988   0.46295   0.93410   1.000
    H354    H    0.04966   0.60311   0.07817   1.000
    H355    H    0.91070   0.46285   0.07203   1.000
    H356    H    0.41491   0.46196   0.57958   1.000
    H357    H    0.41444   0.60581   0.43105   1.000
    H358    H    0.55104   0.60020   0.57212   1.000
    H359    H    0.55204   0.46637   0.43687   1.000
    H360    H    0.05332   0.96508   0.43816   1.000
    H361    H    0.91421   0.96415   0.57895   1.000
    H362    H    0.05317   0.10163   0.57376   1.000
    H363    H    0.91558   0.10565   0.43119   1.000
    H364    H    0.41188   0.96276   0.07224   1.000
    H365    H    0.41148   0.10120   0.93961   1.000
    H366    H    0.55039   0.10246   0.07765   1.000
    H367    H    0.54939   0.96049   0.93337   1.000
    S368    S    0.33741   0.46100   0.50654   1.000
    S369    S    0.62098   0.60637   0.49712   1.000
    S370    S    0.61956   0.45738   0.51414   1.000
    S371    S    0.33788   0.60574   0.50619   1.000
    O372    O    0.97880   0.89396   0.43461   1.000
    O373    O    0.97871   0.17400   0.57805   1.000
    O374    O    0.98306   0.15819   0.43673   1.000
    O375    O    0.98236   0.90829   0.57428   1.000
    S376    S    0.90889   0.53144   0.85886   1.000
    S377    S    0.05602   0.52638   0.15278   1.000
    S378    S    0.90860   0.53647   0.15285   1.000
    S379    S    0.05599   0.54064   0.85990   1.000
    S380    S    0.34068   0.96004   0.00063   1.000
    S381    S    0.62668   0.10403   0.00704   1.000
    S382    S    0.62597   0.95845   0.00391   1.000
    S383    S    0.33962   0.10299   0.01116   1.000
    O384    O    0.97855   0.40957   0.93692   1.000
    O385    O    0.97869   0.65613   0.07542   1.000
    O386    O    0.98646   0.67525   0.93246   1.000
    O387    O    0.98612   0.39112   0.07995   1.000
    S388    S    0.90821   0.03126   0.35950   1.000
    S389    S    0.05452   0.03112   0.65273   1.000
    S390    S    0.90826   0.03604   0.65266   1.000
    S391    S    0.05457   0.03430   0.35926   1.000
    S392    S    0.84291   0.45967   0.99229   1.000
    S393    S    0.12625   0.60549   0.00621   1.000
    S394    S    0.12540   0.45980   0.00669   1.000
    S395    S    0.84250   0.60545   0.01966   1.000
    O396    O    0.48201   0.90763   0.93734   1.000
    O397    O    0.48221   0.15805   0.07343   1.000
    O398    O    0.48249   0.16642   0.93947   1.000
    O399    O    0.48235   0.89616   0.07908   1.000
    S400    S    0.40819   0.53264   0.35940   1.000
    S401    S    0.55334   0.53516   0.65214   1.000
    S402    S    0.40855   0.53333   0.65350   1.000
    S403    S    0.55356   0.53557   0.36017   1.000
    S404    S    0.83811   0.96150   0.50336   1.000
    S405    S    0.12195   0.10743   0.49827   1.000
    S406    S    0.12203   0.95975   0.51253   1.000
    S407    S    0.83892   0.10704   0.50755   1.000
    O408    O    0.47496   0.39430   0.43433   1.000
    O409    O    0.47849   0.67165   0.57787   1.000
    O410    O    0.48249   0.66003   0.43656   1.000
    O411    O    0.48360   0.40897   0.57400   1.000
    S412    S    0.41238   0.03551   0.85813   1.000
    S413    S    0.55535   0.02823   0.15111   1.000
    S414    S    0.41168   0.03529   0.15372   1.000
    S415    S    0.55356   0.03972   0.85949   1.000
    O416    O    0.98205   0.47141   0.87870   1.000
    O417    O    0.98236   0.60570   0.87103   1.000
    O418    O    0.98207   0.46331   0.14145   1.000
    O419    O    0.98183   0.59426   0.13368   1.000
    S420    S    0.33641   0.53121   0.43562   1.000
    S421    S    0.33735   0.53579   0.57655   1.000
    S422    S    0.62599   0.52639   0.43607   1.000
    S423    S    0.62526   0.53632   0.57561   1.000
    S424    S    0.90994   0.88613   0.50361   1.000
    S425    S    0.05126   0.88304   0.50556   1.000
    S426    S    0.91109   0.18205   0.50887   1.000
    S427    S    0.05002   0.18314   0.50734   1.000
    O428    O    0.97892   0.96558   0.37516   1.000
    O429    O    0.98284   0.09672   0.37729   1.000
    O430    O    0.98247   0.96909   0.63460   1.000
    O431    O    0.97896   0.10045   0.63596   1.000
    S432    S    0.33968   0.03562   0.93358   1.000
    S433    S    0.33943   0.02789   0.07869   1.000
    S434    S    0.62541   0.03592   0.93469   1.000
    S435    S    0.62717   0.02687   0.07573   1.000
    S436    S    0.91223   0.38331   0.01154   1.000
    S437    S    0.05296   0.38411   0.00805   1.000
    S438    S    0.91208   0.68204   0.00181   1.000
    S439    S    0.05383   0.68111   0.00345   1.000
    O440    O    0.47914   0.46704   0.37363   1.000
    O441    O    0.48235   0.59891   0.37711   1.000
    O442    O    0.48300   0.46827   0.63352   1.000
    O443    O    0.47912   0.60205   0.63917   1.000
    S444    S    0.83819   0.54368   0.93480   1.000
    S445    S    0.83812   0.52069   0.07754   1.000
    S446    S    0.12723   0.53547   0.93602   1.000
    S447    S    0.12715   0.52925   0.07653   1.000
    S448    S    0.41242   0.88373   0.00526   1.000
    S449    S    0.55278   0.88400   0.01123   1.000
    S450    S    0.41114   0.17963   0.00844   1.000
    S451    S    0.55409   0.17922   0.00240   1.000
    O452    O    0.48255   0.96919   0.87884   1.000
    O453    O    0.48265   0.10845   0.86479   1.000
    O454    O    0.48246   0.96529   0.14581   1.000
    O455    O    0.48256   0.09683   0.13315   1.000
    S456    S    0.83646   0.03479   0.43534   1.000
    S457    S    0.83709   0.03469   0.57613   1.000
    S458    S    0.12635   0.02944   0.43586   1.000
    S459    S    0.12596   0.03766   0.57592   1.000
    S460    S    0.40921   0.38540   0.50570   1.000
    S461    S    0.54954   0.38069   0.50127   1.000
    S462    S    0.40981   0.68158   0.50887   1.000
    S463    S    0.54939   0.68250   0.50755   1.000
    O464    O    0.93178   0.98579   0.55657   1.000
    O465    O    0.02973   0.08443   0.55667   1.000
    O466    O    0.02960   0.98191   0.45525   1.000
    O467    O    0.93181   0.08327   0.45514   1.000
    O468    O    0.03307   0.48391   0.95676   1.000
    O469    O    0.03290   0.58175   0.05572   1.000
    O470    O    0.93519   0.58608   0.95659   1.000
    O471    O    0.93519   0.47966   0.05572   1.000
    O472    O    0.43067   0.58277   0.45490   1.000
    O473    O    0.52862   0.58297   0.55371   1.000
    O474    O    0.43142   0.48420   0.55674   1.000
    O475    O    0.52920   0.48322   0.45507   1.000
    O476    O    0.43507   0.08393   0.95669   1.000
    O477    O    0.53309   0.08017   0.05547   1.000
    O478    O    0.43497   0.98117   0.05561   1.000
    O479    O    0.53265   0.98320   0.95690   1.000
    O480    O    0.01838   0.07156   0.46679   1.000
    O481    O    0.94679   0.99409   0.46773   1.000
    O482    O    0.94727   0.07216   0.54147   1.000
    O483    O    0.01815   0.99705   0.54433   1.000
    O484    O    0.94731   0.56964   0.04362   1.000
    O485    O    0.94757   0.49621   0.96872   1.000
    O486    O    0.01785   0.49217   0.04362   1.000
    O487    O    0.01790   0.57349   0.96879   1.000
    O488    O    0.51705   0.49584   0.54468   1.000
    O489    O    0.44643   0.49505   0.46783   1.000
    O490    O    0.51672   0.57081   0.46724   1.000
    O491    O    0.44354   0.57397   0.54443   1.000
    O492    O    0.51746   0.99345   0.04348   1.000
    O493    O    0.44439   0.99366   0.96586   1.000
    O494    O    0.51788   0.07149   0.96879   1.000
    O495    O    0.44681   0.06850   0.04320   1.000
    Zr496   Zr   0.98250   0.53286   0.09620   1.000
    Zr497   Zr   0.98257   0.53294   0.91600   1.000
    Zr498   Zr   0.56398   0.53283   0.50423   1.000
    Zr499   Zr   0.40035   0.53283   0.50441   1.000
    Zr500   Zr   0.98217   0.12140   0.50022   1.000
    Zr501   Zr   0.98226   0.94472   0.51204   1.000
    Zr502   Zr   0.98216   0.03106   0.59457   1.000
    Zr503   Zr   0.98203   0.03478   0.41773   1.000
    Zr504   Zr   0.56442   0.03101   0.00610   1.000
    Zr505   Zr   0.40014   0.03101   0.00607   1.000
    Zr506   Zr   0.98247   0.62286   0.01029   1.000
    Zr507   Zr   0.98246   0.44281   0.00209   1.000
    Zr508   Zr   0.47877   0.53279   0.59443   1.000
    Zr509   Zr   0.47908   0.53679   0.41777   1.000
    Zr510   Zr   0.06393   0.53287   0.00617   1.000
    Zr511   Zr   0.90046   0.53287   0.00614   1.000
    Zr512   Zr   0.48270   0.12135   0.01008   1.000
    Zr513   Zr   0.48251   0.94433   0.00216   1.000
    Zr514   Zr   0.48265   0.03490   0.09278   1.000
    Zr515   Zr   0.48263   0.03087   0.91970   1.000
    Zr516   Zr   0.06444   0.03477   0.50434   1.000
    Zr517   Zr   0.90050   0.03480   0.50423   1.000
    Zr518   Zr   0.47898   0.62292   0.50019   1.000
    Zr519   Zr   0.48238   0.44296   0.51204   1.000
    H520    H    0.01546   0.37520   0.07155   1.000
    H521    H    0.01640   0.69012   0.94055   1.000
    H522    H    0.51267   0.10076   0.84986   1.000
    H523    H    0.51107   0.18465   0.93766   1.000
    H524    H    0.48089   0.14833   0.90955   1.000
    H525    H    0.51217   0.97053   0.16223   1.000
    H526    H    0.51292   0.88176   0.07807   1.000
    H527    H    0.48271   0.91811   0.10578   1.000
    H528    H    0.94906   0.87837   0.44329   1.000
    H529    H    0.94985   0.96537   0.35766   1.000
    H530    H    0.97976   0.93653   0.39479   1.000
    H531    H    0.94855   0.18821   0.56898   1.000
    H532    H    0.95041   0.10051   0.65423   1.000
    H533    H    0.97993   0.13015   0.61724   1.000
    H534    H    0.45096   0.46586   0.35515   1.000
    H535    H    0.44478   0.38016   0.44329   1.000
    H536    H    0.47855   0.43844   0.39395   1.000
    H537    H    0.44961   0.60143   0.65566   1.000
    H538    H    0.44867   0.68720   0.57013   1.000
    H539    H    0.47924   0.63027   0.61804   1.000
    H540    H    0.98249   0.43620   0.11966   1.000
    H541    H    0.98327   0.63296   0.89278   1.000
    H542    H    0.01172   0.46277   0.15787   1.000
    H543    H    0.01197   0.60639   0.85467   1.000
    S544    S    0.99868   0.42018   0.88790   1.000
    S545    S    0.99863   0.64541   0.12454   1.000
    O546    O    0.04863   0.42193   0.89128   1.000
    O547    O    0.97885   0.38929   0.85408   1.000
    O548    O    0.97913   0.67638   0.15833   1.000
    O549    O    0.04869   0.64380   0.12102   1.000
    H550    H    0.96135   0.36794   0.07660   1.000
    H551    H    0.96177   0.69839   0.93574   1.000
    S552    S    0.46449   0.41901   0.62403   1.000
    S553    S    0.46297   0.64827   0.38719   1.000
    O554    O    0.47838   0.68099   0.35236   1.000
    O555    O    0.41281   0.64358   0.39322   1.000
    O556    O    0.48226   0.38495   0.65625   1.000
    O557    O    0.41446   0.42194   0.61936   1.000
    H558    H    0.49914   0.37045   0.43673   1.000
    H559    H    0.50404   0.69384   0.57362   1.000
    S560    S    0.96401   0.14637   0.38733   1.000
    S561    S    0.96266   0.91987   0.62376   1.000
    O562    O    0.91392   0.14186   0.39315   1.000
    O563    O    0.98034   0.17867   0.35253   1.000
    O564    O    0.91267   0.92406   0.61898   1.000
    O565    O    0.97955   0.88639   0.65674   1.000
    H566    H    0.00311   0.87020   0.43862   1.000
    H567    H    0.00272   0.19773   0.57393   1.000
    S568    S    0.50271   0.91991   0.88905   1.000
    S569    S    0.50301   0.14618   0.12266   1.000
    O570    O    0.48947   0.88700   0.85405   1.000
    O571    O    0.55277   0.92450   0.89557   1.000
    O572    O    0.55290   0.14141   0.11680   1.000
    O573    O    0.48907   0.17884   0.15770   1.000
    H574    H    0.45762   0.96982   0.16865   1.000
    H575    H    0.45862   0.10232   0.84125   1.000
