# CIF file generated by openbabel 3.0.0, see http://openbabel.sf.net
data_I
_chemical_name_common 'D:\! BYU CALCULATION\Acidic MOF Patent\Periodic_07_10\mof808_cellopt_pbesol-pos-final.pdb'
_cell_length_a 29.687
_cell_length_b 30.027
_cell_length_c 29.659
_cell_angle_alpha 59.95
_cell_angle_beta 60.42
_cell_angle_gamma 59.2
_space_group_name_H-M_alt 'P 1'
_space_group_name_Hall 'P 1'
loop_
    _atom_site_label
    _atom_site_type_symbol
    _atom_site_fract_x
    _atom_site_fract_y
    _atom_site_fract_z
    _atom_site_occupancy
    H0      H    0.42816   0.35462   0.58856   1.000
    H1      H    0.98420   0.32772   0.33185   1.000
    N2      N    0.11818   0.23527   0.30936   1.000
    N3      N    0.84140   0.09224   0.55646   1.000
    H4      H    0.83589   0.08278   0.44705   1.000
    N5      N    0.81325   0.41166   0.44265   1.000
    N6      N    0.15508   0.05895   0.29703   1.000
    H7      H    0.84173   0.22447   0.59390   1.000
    N8      N    0.98902   0.07133   0.28988   1.000
    N9      N    0.82668   0.40668   0.28376   1.000
    H10     H    0.10353   0.07991   0.46152   1.000
    N11     N    0.99945   0.06706   0.59390   1.000
    N12     N    0.83474   0.24625   0.30197   1.000
    N13     N    0.14727   0.24883   0.78876   1.000
    H14     H    0.00504   0.40552   0.77602   1.000
    N15     N    0.30837   0.57338   0.44101   1.000
    N16     N    0.30973   0.55281   0.61823   1.000
    H17     H    0.30702   0.24056   0.63956   1.000
    N18     N    0.98956   0.55923   0.79147   1.000
    N19     N    0.32592   0.41855   0.41898   1.000
    N20     N    0.15331   0.56937   0.79118   1.000
    N21     N    0.31444   0.25142   0.78633   1.000
    N22     N    0.00649   0.55772   0.61700   1.000
    H23     H    0.15298   0.52957   0.50360   1.000
    H24     H    0.29999   0.40562   0.78013   1.000
    C25     C    0.90805   0.35191   0.39596   1.000
    C26     C    0.12826   0.15081   0.30262   1.000
    C27     C    0.90898   0.07378   0.37640   1.000
    C28     C    0.93887   0.34419   0.34471   1.000
    C29     C    0.12003   0.17762   0.33513   1.000
    C30     C    0.86547   0.11106   0.57417   1.000
    C31     C    0.85624   0.10347   0.40435   1.000
    C32     C    0.12093   0.07004   0.38639   1.000
    C33     C    0.91650   0.15269   0.59452   1.000
    C34     C    0.91189   0.15849   0.29642   1.000
    C35     C    0.91245   0.35981   0.30817   1.000
    C36     C    0.11413   0.15202   0.39148   1.000
    C37     C    0.91798   0.07783   0.58038   1.000
    C38     C    0.84939   0.37284   0.41199   1.000
    C39     C    0.13260   0.09524   0.32917   1.000
    C40     C    0.86301   0.18326   0.59049   1.000
    C41     C    0.93484   0.10164   0.32202   1.000
    C42     C    0.85423   0.37677   0.32646   1.000
    C43     C    0.11216   0.09887   0.41692   1.000
    C44     C    0.94274   0.10014   0.59000   1.000
    C45     C    0.85896   0.18607   0.32650   1.000
    C46     C    0.23186   0.24316   0.70845   1.000
    C47     C    0.99729   0.47549   0.78654   1.000
    C48     C    0.23074   0.56149   0.70434   1.000
    C49     C    0.20587   0.24515   0.76213   1.000
    C50     C    0.00108   0.44887   0.75662   1.000
    C51     C    0.28084   0.53389   0.46139   1.000
    C52     C    0.28286   0.52928   0.67791   1.000
    C53     C    0.99617   0.55923   0.70471   1.000
    C54     C    0.23030   0.46935   0.47340   1.000
    C55     C    0.22901   0.47956   0.78761   1.000
    C56     C    0.23283   0.24594   0.78942   1.000
    C57     C    0.00253   0.47556   0.70154   1.000
    C58     C    0.22239   0.55321   0.47656   1.000
    C59     C    0.28678   0.24094   0.68186   1.000
    C60     C    0.99353   0.53078   0.76015   1.000
    C61     C    0.28818   0.45398   0.45474   1.000
    C62     C    0.20592   0.53578   0.76028   1.000
    C63     C    0.28746   0.24512   0.76024   1.000
    C64     C    0.00071   0.53021   0.67639   1.000
    C65     C    0.19807   0.51843   0.48659   1.000
    C66     C    0.28143   0.44959   0.75958   1.000
    O67     O    0.63565   0.29575   0.51536   1.000
    O68     O    0.46845   0.34309   0.57504   1.000
    O69     O    0.54155   0.43167   0.64129   1.000
    H70     H    0.52278   0.28605   0.72920   1.000
    O71     O    0.52255   0.31507   0.69353   1.000
    S72     S    0.59992   0.40478   0.61614   1.000
    O73     O    0.64097   0.41235   0.62090   1.000
    H74     H    0.55526   0.32697   0.67672   1.000
    O75     O    0.61211   0.34100   0.63402   1.000
    O76     O    0.49665   0.23551   0.71807   1.000
    H77     H    0.61611   0.23348   0.65329   1.000
    Zr78    Zr   0.50786   0.28957   0.64306   1.000
    H79     H    0.46842   0.21896   0.73545   1.000
    O80     O    0.60084   0.25461   0.62292   1.000
    H81     H    0.71683   0.13418   0.59678   1.000
    O82     O    0.67811   0.13704   0.60475   1.000
    Zr83    Zr   0.62293   0.33963   0.55790   1.000
    O84     O    0.60950   0.41861   0.55321   1.000
    O85     O    0.54105   0.35459   0.58350   1.000
    H86     H    0.68072   0.10416   0.60290   1.000
    O87     O    0.54626   0.24985   0.58424   1.000
    O88     O    0.51011   0.47131   0.54409   1.000
    Zr89    Zr   0.63047   0.22018   0.55625   1.000
    H90     H    0.54912   0.45583   0.54565   1.000
    Zr91    Zr   0.50031   0.41013   0.52691   1.000
    H92     H    0.64439   0.14067   0.52177   1.000
    O93     O    0.61836   0.15426   0.55276   1.000
    H94     H    0.57927   0.17178   0.54717   1.000
    Zr95    Zr   0.50845   0.29246   0.52259   1.000
    O96     O    0.58694   0.40327   0.48346   1.000
    O97     O    0.52777   0.20564   0.53476   1.000
    O98     O    0.45779   0.49716   0.48199   1.000
    H99     H    0.59947   0.43468   0.46160   1.000
    O100    O    0.53818   0.35826   0.48042   1.000
    O101    O    0.59965   0.26276   0.48112   1.000
    H102    H    0.45055   0.52656   0.49304   1.000
    Zr103   Zr   0.62356   0.33704   0.43969   1.000
    O104    O    0.59495   0.42559   0.37677   1.000
    H105    H    0.55591   0.44237   0.37936   1.000
    H106    H    0.42448   0.50411   0.47413   1.000
    O107    O    0.50711   0.28193   0.45856   1.000
    H108    H    0.60794   0.23971   0.45971   1.000
    S109    S    0.53502   0.21829   0.47331   1.000
    O110    O    0.59522   0.20449   0.44339   1.000
    O111    O    0.50679   0.19374   0.47007   1.000
    H112    H    0.61537   0.40769   0.34787   1.000
    O113    O    0.64917   0.33655   0.36374   1.000
    H114    H    0.68288   0.31050   0.34693   1.000
    H115    H    0.48691   0.47361   0.58120   1.000
    C116    C    0.31524   0.24252   0.70676   1.000
    C117    C    0.31372   0.48105   0.45798   1.000
    C118    C    0.30950   0.47400   0.70508   1.000
    C119    C    0.36980   0.24715   0.67495   1.000
    N120    N    0.39242   0.25640   0.62012   1.000
    N121    N    0.40079   0.24919   0.69472   1.000
    N122    N    0.44237   0.26094   0.65128   1.000
    C123    C    0.36809   0.44874   0.46645   1.000
    N124    N    0.39785   0.46568   0.47335   1.000
    N125    N    0.38828   0.39290   0.48141   1.000
    N126    N    0.43054   0.37643   0.49682   1.000
    C127    C    0.36280   0.44071   0.67643   1.000
    N128    N    0.39221   0.46066   0.62358   1.000
    N129    N    0.38670   0.38555   0.69764   1.000
    N130    N    0.43069   0.37164   0.65687   1.000
    N131    N    0.43753   0.26503   0.60627   1.000
    N132    N    0.43368   0.41720   0.61190   1.000
    N133    N    0.43579   0.42022   0.49279   1.000
    C134    C    0.83686   0.16300   0.58050   1.000
    C135    C    0.82238   0.37702   0.38047   1.000
    C136    C    0.83023   0.15957   0.37993   1.000
    C137    C    0.78153   0.19621   0.57565   1.000
    N138    N    0.75045   0.17745   0.57306   1.000
    N139    N    0.75467   0.24949   0.57273   1.000
    N140    N    0.70480   0.21972   0.56756   1.000
    N141    N    0.70679   0.26299   0.56780   1.000
    C142    C    0.76529   0.37966   0.40615   1.000
    N143    N    0.73830   0.36900   0.46279   1.000
    N144    N    0.73550   0.37649   0.38581   1.000
    N145    N    0.69271   0.36068   0.47442   1.000
    N146    N    0.69267   0.36497   0.42703   1.000
    C147    C    0.77657   0.18947   0.41179   1.000
    N148    N    0.75003   0.16659   0.46517   1.000
    N149    N    0.74816   0.24381   0.39259   1.000
    N150    N    0.70531   0.20821   0.47820   1.000
    N151    N    0.70431   0.25457   0.43468   1.000
    H152    H    0.11574   0.35494   0.58724   1.000
    O153    O    0.04562   0.27846   0.53020   1.000
    O154    O    0.10056   0.34070   0.57676   1.000
    O155    O    0.87673   0.40663   0.66114   1.000
    H156    H    0.95129   0.49381   0.51614   1.000
    O157    O    0.95755   0.45858   0.54577   1.000
    S158    S    0.86886   0.38116   0.63603   1.000
    O159    O    0.81421   0.38779   0.64466   1.000
    H160    H    0.93029   0.44154   0.55691   1.000
    O161    O    0.90292   0.39706   0.57224   1.000
    O162    O    0.04025   0.48129   0.46719   1.000
    H163    H    0.98755   0.41482   0.46702   1.000
    Zr164   Zr   0.04864   0.40752   0.52321   1.000
    H165    H    0.06885   0.49743   0.44894   1.000
    O166    O    0.01232   0.38544   0.48836   1.000
    H167    H    0.04579   0.36050   0.36752   1.000
    O168    O    0.07475   0.36657   0.37073   1.000
    Zr169   Zr   0.97008   0.32024   0.57323   1.000
    O170    O    0.90672   0.31774   0.65152   1.000
    O171    O    0.00889   0.34830   0.58876   1.000
    H172    H    0.10811   0.36319   0.33875   1.000
    O173    O    0.11088   0.34882   0.48338   1.000
    O174    O    0.96089   0.31066   0.70356   1.000
    Zr175   Zr   0.08558   0.31941   0.45437   1.000
    H176    H    0.93778   0.30745   0.68950   1.000
    Zr177   Zr   0.05051   0.29261   0.64372   1.000
    H178    H    0.18786   0.28292   0.37627   1.000
    O179    O    0.16903   0.31425   0.38934   1.000
    H180    H    0.19595   0.30908   0.40644   1.000
    Zr181   Zr   0.16690   0.28711   0.52715   1.000
    O182    O    0.01657   0.24691   0.63771   1.000
    O183    O    0.22536   0.29663   0.44171   1.000
    O184    O    0.05001   0.25130   0.73134   1.000
    H185    H    0.99343   0.22552   0.66805   1.000
    O186    O    0.11321   0.24472   0.59386   1.000
    O187    O    0.14853   0.24451   0.49814   1.000
    H188    H    0.01537   0.26336   0.75950   1.000
    Zr189   Zr   0.09184   0.20321   0.57245   1.000
    O190    O    0.09179   0.13944   0.66151   1.000
    H191    H    0.10833   0.14336   0.68021   1.000
    H192    H    0.08216   0.24895   0.73714   1.000
    O193    O    0.24313   0.22151   0.51967   1.000
    H194    H    0.18588   0.22277   0.47557   1.000
    S195    S    0.26600   0.23472   0.45630   1.000
    O196    O    0.24958   0.20481   0.44278   1.000
    O197    O    0.32295   0.22936   0.43283   1.000
    H198    H    0.12181   0.11177   0.64281   1.000
    O199    O    0.14863   0.12857   0.57175   1.000
    H200    H    0.16518   0.11184   0.54368   1.000
    H201    H    0.94256   0.35023   0.69904   1.000
    C202    C    0.20234   0.24854   0.67754   1.000
    N203    N    0.14880   0.25335   0.69657   1.000
    N204    N    0.22466   0.25479   0.62333   1.000
    N205    N    0.18404   0.26381   0.60948   1.000
    C206    C    0.01012   0.44439   0.67154   1.000
    N207    N    0.01740   0.46347   0.61721   1.000
    N208    N    0.01459   0.39096   0.69456   1.000
    N209    N    0.02545   0.37731   0.65333   1.000
    C210    C    0.20099   0.43692   0.48231   1.000
    N211    N    0.14828   0.45900   0.48166   1.000
    N212    N    0.22014   0.38130   0.49814   1.000
    N213    N    0.17946   0.36953   0.50591   1.000
    N214    N    0.13837   0.26333   0.65342   1.000
    N215    N    0.13538   0.41644   0.49670   1.000
    N216    N    0.02698   0.42144   0.60648   1.000
    C217    C    0.10858   0.17966   0.42383   1.000
    N218    N    0.10781   0.23150   0.40340   1.000
    N219    N    0.10341   0.15675   0.47812   1.000
    N220    N    0.09884   0.19549   0.49082   1.000
    C221    C    0.93748   0.34032   0.43028   1.000
    N222    N    0.91780   0.32910   0.48544   1.000
    N223    N    0.98983   0.34016   0.40940   1.000
    N224    N    0.00148   0.32952   0.45206   1.000
    C225    C    0.94461   0.17711   0.59957   1.000
    N226    N    0.92131   0.22862   0.60126   1.000
    N227    N    0.99827   0.15391   0.59703   1.000
    N228    N    0.00841   0.19208   0.59629   1.000
    N229    N    0.10164   0.24021   0.44569   1.000
    N230    N    0.96170   0.23720   0.59887   1.000
    N231    N    0.95803   0.32370   0.49752   1.000
    H232    H    0.11212   0.36368   0.90540   1.000
    O233    O    0.05126   0.29021   0.11175   1.000
    O234    O    0.10068   0.34937   0.94547   1.000
    O235    O    0.18358   0.41452   0.02240   1.000
    H236    H    0.04174   0.50548   0.99249   1.000
    O237    O    0.06831   0.46782   0.99792   1.000
    S238    S    0.15647   0.39092   0.08064   1.000
    O239    O    0.16376   0.39826   0.12042   1.000
    H240    H    0.07836   0.45242   0.03202   1.000
    O241    O    0.09269   0.40877   0.09087   1.000
    O242    O    0.99349   0.49278   0.96208   1.000
    H243    H    0.98741   0.42714   0.08972   1.000
    Zr244   Zr   0.04599   0.41752   0.98090   1.000
    H245    H    0.97876   0.50955   0.93179   1.000
    O246    O    0.00940   0.39772   0.07369   1.000
    H247    H    0.88536   0.37343   0.18434   1.000
    O248    O    0.89072   0.37962   0.14537   1.000
    Zr249   Zr   0.09360   0.33192   0.10185   1.000
    O250    O    0.17164   0.32756   0.09326   1.000
    O251    O    0.11106   0.35772   0.01899   1.000
    H252    H    0.85937   0.37750   0.14451   1.000
    O253    O    0.00641   0.35909   0.01862   1.000
    O254    O    0.22643   0.31935   0.99434   1.000
    Zr255   Zr   0.97616   0.33196   0.10197   1.000
    H256    H    0.21180   0.31633   0.03448   1.000
    Zr257   Zr   0.16755   0.30098   0.98099   1.000
    H258    H    0.90115   0.29323   0.11352   1.000
    O259    O    0.91214   0.32543   0.08754   1.000
    H260    H    0.92986   0.32005   0.04907   1.000
    Zr261   Zr   0.05126   0.29642   0.98341   1.000
    O262    O    0.15989   0.25800   0.06827   1.000
    O263    O    0.96553   0.30698   0.99771   1.000
    O264    O    0.25718   0.25835   0.93935   1.000
    H265    H    0.19011   0.23516   0.08405   1.000
    O266    O    0.11788   0.25483   0.01545   1.000
    O267    O    0.02202   0.25550   0.07254   1.000
    H268    H    0.28311   0.27265   0.93425   1.000
    Zr269   Zr   0.09559   0.21428   0.10024   1.000
    O270    O    0.18662   0.15213   0.07431   1.000
    H271    H    0.20148   0.15529   0.03559   1.000
    H272    H    0.26462   0.25491   0.90405   1.000
    O273    O    0.04500   0.23107   0.98078   1.000
    H274    H    0.00000   0.23359   0.08015   1.000
    S275    S    0.98134   0.24511   0.00596   1.000
    O276    O    0.96722   0.21577   0.06609   1.000
    O277    O    0.95891   0.23979   0.97659   1.000
    H278    H    0.16951   0.12303   0.09482   1.000
    O279    O    0.09821   0.13812   0.12478   1.000
    H280    H    0.07293   0.12054   0.15754   1.000
    H281    H    0.22158   0.35883   0.97679   1.000
    C282    C    0.20323   0.25251   0.84342   1.000
    N283    N    0.22292   0.25853   0.87191   1.000
    N284    N    0.14921   0.25836   0.86948   1.000
    N285    N    0.13571   0.26860   0.91350   1.000
    C286    C    0.19828   0.44999   0.84141   1.000
    N287    N    0.14324   0.47040   0.86669   1.000
    N288    N    0.22048   0.39592   0.86821   1.000
    N289    N    0.17795   0.38324   0.90992   1.000
    C290    C    0.00324   0.44412   0.84145   1.000
    N291    N    0.00323   0.46507   0.87260   1.000
    N292    N    0.01697   0.38885   0.86393   1.000
    N293    N    0.02648   0.37612   0.90869   1.000
    N294    N    0.17994   0.26889   0.91498   1.000
    N295    N    0.01863   0.42227   0.91358   1.000
    N296    N    0.13124   0.42848   0.90890   1.000
    C297    C    0.94385   0.18844   0.24381   1.000
    N298    N    0.92287   0.24207   0.21528   1.000
    N299    N    0.99926   0.16739   0.22009   1.000
    N300    N    0.01219   0.20868   0.17735   1.000
    C301    C    0.94582   0.35572   0.25322   1.000
    N302    N    0.99982   0.35067   0.22872   1.000
    N303    N    0.92734   0.35303   0.22137   1.000
    N304    N    0.97068   0.34544   0.17768   1.000
    C305    C    0.12730   0.18106   0.24595   1.000
    N306    N    0.12042   0.23525   0.22042   1.000
    N307    N    0.12645   0.16065   0.21496   1.000
    N308    N    0.11849   0.20268   0.17057   1.000
    N309    N    0.96621   0.25353   0.17459   1.000
    N310    N    0.11489   0.24797   0.17381   1.000
    N311    N    0.01409   0.34441   0.18171   1.000
    H312    H    0.10698   0.67576   0.59255   1.000
    O313    O    0.03995   0.88184   0.51532   1.000
    O314    O    0.09308   0.71588   0.57832   1.000
    O315    O    0.86683   0.79963   0.64347   1.000
    H316    H    0.94895   0.76850   0.73151   1.000
    O317    O    0.95406   0.77322   0.69439   1.000
    S318    S    0.86103   0.85731   0.61770   1.000
    O319    O    0.80686   0.89866   0.62407   1.000
    H320    H    0.92568   0.80789   0.67886   1.000
    O321    O    0.89798   0.86732   0.63389   1.000
    O322    O    0.03926   0.73623   0.71975   1.000
    H323    H    0.98849   0.86135   0.65177   1.000
    Zr324   Zr   0.04477   0.75366   0.64425   1.000
    H325    H    0.06793   0.70615   0.73631   1.000
    O326    O    0.01194   0.84534   0.62234   1.000
    H327    H    0.05481   0.94952   0.59920   1.000
    O328    O    0.08148   0.91029   0.60574   1.000
    Zr329   Zr   0.96428   0.87447   0.55724   1.000
    O330    O    0.89719   0.86746   0.55453   1.000
    O331    O    0.00187   0.79151   0.58453   1.000
    H332    H    0.11698   0.90910   0.60126   1.000
    O333    O    0.10810   0.78819   0.58379   1.000
    O334    O    0.94783   0.76918   0.54577   1.000
    Zr335   Zr   0.08574   0.87072   0.55510   1.000
    H336    H    0.92558   0.80922   0.54392   1.000
    Zr337   Zr   0.03938   0.75206   0.52913   1.000
    H338    H    0.18906   0.88048   0.51240   1.000
    O339    O    0.17204   0.85532   0.54614   1.000
    H340    H    0.19711   0.81646   0.54117   1.000
    Zr341   Zr   0.16012   0.75042   0.52296   1.000
    O342    O    0.00482   0.83947   0.48482   1.000
    O343    O    0.22319   0.76469   0.52962   1.000
    O344    O    0.03392   0.70775   0.48975   1.000
    H345    H    0.98099   0.85575   0.46263   1.000
    O346    O    0.10334   0.78337   0.48083   1.000
    O347    O    0.14279   0.84067   0.48014   1.000
    H348    H    0.99812   0.70344   0.50471   1.000
    Zr349   Zr   0.08217   0.86960   0.44031   1.000
    O350    O    0.07762   0.84476   0.37919   1.000
    H351    H    0.09918   0.80625   0.38191   1.000
    H352    H    0.06464   0.67112   0.48914   1.000
    O353    O    0.23405   0.74685   0.45585   1.000
    H354    H    0.18039   0.84652   0.45691   1.000
    S355    S    0.26055   0.77158   0.46752   1.000
    O356    O    0.24409   0.83173   0.43747   1.000
    O357    O    0.31809   0.74183   0.46090   1.000
    H358    H    0.10249   0.86596   0.34931   1.000
    O359    O    0.12974   0.89572   0.36362   1.000
    H360    H    0.13944   0.92860   0.34611   1.000
    H361    H    0.93066   0.75046   0.58474   1.000
    C362    C    0.18961   0.60573   0.48700   1.000
    N363    N    0.13496   0.63494   0.49337   1.000
    N364    N    0.21200   0.63036   0.49407   1.000
    N365    N    0.17131   0.67473   0.50443   1.000
    C366    C    0.00014   0.61404   0.67660   1.000
    N367    N    0.00910   0.63843   0.69797   1.000
    N368    N    0.00217   0.64368   0.62366   1.000
    N369    N    0.01366   0.68579   0.61244   1.000
    C370    C    0.20063   0.61613   0.67310   1.000
    N371    N    0.14765   0.64687   0.69402   1.000
    N372    N    0.21928   0.63804   0.61774   1.000
    N373    N    0.17704   0.68151   0.60488   1.000
    N374    N    0.12470   0.67750   0.50451   1.000
    N375    N    0.13352   0.68671   0.65099   1.000
    N376    N    0.01771   0.68267   0.65757   1.000
    C377    C    0.11464   0.01620   0.41470   1.000
    N378    N    0.11370   0.98594   0.46731   1.000
    N379    N    0.10387   0.99291   0.39366   1.000
    N380    N    0.09583   0.94812   0.43398   1.000
    C381    C    0.94481   0.02316   0.57594   1.000
    N382    N    0.91981   0.99912   0.57163   1.000
    N383    N    0.99760   0.99023   0.57446   1.000
    N384    N    0.00464   0.94654   0.56801   1.000
    C385    C    0.93672   0.01712   0.40657   1.000
    N386    N    0.91440   0.99234   0.46090   1.000
    N387    N    0.98918   0.98544   0.38626   1.000
    N388    N    0.99953   0.94134   0.42860   1.000
    N389    N    0.10187   0.94400   0.47804   1.000
    N390    N    0.95414   0.94540   0.47381   1.000
    N391    N    0.95793   0.95160   0.56678   1.000
    O392    O    0.83197   0.45209   0.25478   1.000
    O393    O    0.80249   0.38687   0.27944   1.000
    O394    O    0.75123   0.36473   0.49945   1.000
    O395    O    0.83121   0.41617   0.46842   1.000
    O396    O    0.12539   0.05955   0.27936   1.000
    O397    O    0.20424   0.02945   0.29259   1.000
    O398    O    0.16281   0.24162   0.28836   1.000
    O399    O    0.07211   0.27139   0.31314   1.000
    O400    O    0.85560   0.10422   0.50636   1.000
    O401    O    0.80939   0.06772   0.59201   1.000
    O402    O    0.00347   0.03732   0.64014   1.000
    O403    O    0.03751   0.07104   0.55025   1.000
    O404    O    0.80593   0.26336   0.27389   1.000
    O405    O    0.84665   0.27353   0.31158   1.000
    O406    O    0.98778   0.05898   0.25667   1.000
    O407    O    0.02976   0.06203   0.29839   1.000
    O408    O    0.33270   0.56863   0.46735   1.000
    O409    O    0.30434   0.60782   0.39580   1.000
    O410    O    0.36609   0.43242   0.38306   1.000
    O411    O    0.31368   0.38309   0.42338   1.000
    O412    O    0.94254   0.58566   0.81465   1.000
    O413    O    0.03336   0.55276   0.79229   1.000
    O414    O    0.05396   0.55297   0.58494   1.000
    O415    O    0.96365   0.58338   0.60500   1.000
    O416    O    0.34017   0.20910   0.81584   1.000
    O417    O    0.30695   0.29888   0.77770   1.000
    O418    O    0.11226   0.29528   0.78025   1.000
    O419    O    0.13906   0.20503   0.81465   1.000
    O420    O    0.33845   0.57840   0.60492   1.000
    O421    O    0.30186   0.54298   0.58770   1.000
    O422    O    0.11008   0.57413   0.79085   1.000
    O423    O    0.15884   0.59002   0.81436   1.000
