# CIF file generated by openbabel 3.0.0, see http://openbabel.sf.net
data_I
_chemical_name_common 'D:\! BYU CALCULATION\Acidic MOF Patent\Periodic_07_10_Ti\mof808_cellopt_pbesol-pos-final.pdb'
_cell_length_a 29.004
_cell_length_b 29.271
_cell_length_c 28.97
_cell_angle_alpha 60.09
_cell_angle_beta 60.29
_cell_angle_gamma 59.36
_space_group_name_H-M_alt 'P 1'
_space_group_name_Hall 'P 1'
loop_
    _symmetry_equiv_pos_as_xyz
    x,y,z
loop_
    _atom_site_label
    _atom_site_type_symbol
    _atom_site_fract_x
    _atom_site_fract_y
    _atom_site_fract_z
    _atom_site_occupancy
    H0      H    0.88986   0.55312   0.58396   1.000
    H1      H    0.44117   0.53148   0.33095   1.000
    N2      N    0.57699   0.43742   0.30343   1.000
    N3      N    0.28903   0.29127   0.56156   1.000
    H4      H    0.29056   0.27932   0.44678   1.000
    N5      N    0.26306   0.61844   0.44056   1.000
    N6      N    0.61721   0.25528   0.29282   1.000
    H7      H    0.29954   0.42685   0.59204   1.000
    N8      N    0.44676   0.26989   0.28520   1.000
    N9      N    0.28426   0.60849   0.27624   1.000
    H10     H    0.56175   0.27967   0.46080   1.000
    N11     N    0.45583   0.26261   0.59317   1.000
    N12     N    0.29045   0.44860   0.30191   1.000
    N13     N    0.59986   0.45136   0.78573   1.000
    H14     H    0.46010   0.60285   0.77631   1.000
    N15     N    0.76834   0.77231   0.44199   1.000
    N16     N    0.76605   0.75551   0.61388   1.000
    H17     H    0.76478   0.44043   0.63345   1.000
    N18     N    0.44292   0.76093   0.79234   1.000
    N19     N    0.78681   0.61516   0.41564   1.000
    N20     N    0.60760   0.77225   0.79196   1.000
    N21     N    0.77189   0.45216   0.78355   1.000
    N22     N    0.46419   0.75736   0.61308   1.000
    H23     H    0.60863   0.73234   0.49662   1.000
    H24     H    0.75668   0.60466   0.77887   1.000
    C25     C    0.36168   0.55854   0.39405   1.000
    C26     C    0.58747   0.34958   0.29838   1.000
    C27     C    0.36553   0.27162   0.37410   1.000
    C28     C    0.39504   0.54892   0.34215   1.000
    C29     C    0.57914   0.37818   0.33070   1.000
    C30     C    0.31636   0.31065   0.57676   1.000
    C31     C    0.31106   0.30118   0.40314   1.000
    C32     C    0.57998   0.26761   0.38495   1.000
    C33     C    0.37326   0.35146   0.59347   1.000
    C34     C    0.36753   0.35894   0.29299   1.000
    C35     C    0.37033   0.56321   0.30368   1.000
    C36     C    0.57302   0.35282   0.38836   1.000
    C37     C    0.37024   0.27537   0.58202   1.000
    C38     C    0.30219   0.57859   0.40911   1.000
    C39     C    0.59236   0.29261   0.32624   1.000
    C40     C    0.31851   0.38437   0.58985   1.000
    C41     C    0.39136   0.30074   0.31841   1.000
    C42     C    0.31061   0.58052   0.32094   1.000
    C43     C    0.57097   0.29831   0.41513   1.000
    C44     C    0.39779   0.29740   0.59014   1.000
    C45     C    0.31374   0.38660   0.32477   1.000
    C46     C    0.68736   0.44321   0.70429   1.000
    C47     C    0.45156   0.67474   0.78733   1.000
    C48     C    0.68573   0.76425   0.70235   1.000
    C49     C    0.66043   0.44591   0.75909   1.000
    C50     C    0.45599   0.64724   0.75652   1.000
    C51     C    0.73913   0.73357   0.46017   1.000
    C52     C    0.73899   0.73140   0.67500   1.000
    C53     C    0.45212   0.75984   0.70307   1.000
    C54     C    0.68791   0.66895   0.46842   1.000
    C55     C    0.68410   0.68012   0.78742   1.000
    C56     C    0.68791   0.44706   0.78687   1.000
    C57     C    0.45831   0.67424   0.70004   1.000
    C58     C    0.67961   0.75432   0.47339   1.000
    C59     C    0.74369   0.44086   0.67681   1.000
    C60     C    0.44809   0.73126   0.76014   1.000
    C61     C    0.74706   0.65238   0.45133   1.000
    C62     C    0.66059   0.73776   0.75968   1.000
    C63     C    0.74397   0.44590   0.75694   1.000
    C64     C    0.45709   0.72995   0.67407   1.000
    C65     C    0.65484   0.71959   0.48130   1.000
    C66     C    0.73769   0.64967   0.75829   1.000
    O67     O    0.08842   0.49878   0.51413   1.000
    O68     O    0.93120   0.54053   0.57070   1.000
    O69     O    0.00187   0.62956   0.63909   1.000
    H70     H    0.97494   0.48521   0.72327   1.000
    O71     O    0.97434   0.51750   0.68851   1.000
    S72     S    0.06093   0.60051   0.61287   1.000
    O73     O    0.10467   0.60518   0.61822   1.000
    H74     H    0.01063   0.52508   0.67125   1.000
    O75     O    0.07050   0.53663   0.62878   1.000
    O76     O    0.95770   0.43569   0.70639   1.000
    H77     H    0.06808   0.42986   0.65134   1.000
    Ti78    Ti   0.96556   0.49036   0.63665   1.000
    H79     H    0.92776   0.42032   0.72197   1.000
    O80     O    0.05398   0.45650   0.61948   1.000
    H81     H    0.15998   0.33843   0.60142   1.000
    O82     O    0.11860   0.34715   0.61077   1.000
    Ti83    Ti   0.07769   0.54112   0.55428   1.000
    O84     O    0.07016   0.61526   0.54860   1.000
    O85     O    0.99868   0.55465   0.58004   1.000
    H86     H    0.11475   0.31875   0.60551   1.000
    O87     O    0.00421   0.45114   0.57941   1.000
    O88     O    0.96674   0.66866   0.54414   1.000
    Ti89    Ti   0.08424   0.42621   0.55319   1.000
    H90     H    0.00760   0.65412   0.54212   1.000
    Ti91    Ti   0.96043   0.60560   0.52532   1.000
    H92     H    0.10477   0.34936   0.51329   1.000
    O93     O    0.07715   0.35934   0.54730   1.000
    H94     H    0.03725   0.37550   0.54271   1.000
    Ti95    Ti   0.96773   0.49365   0.51935   1.000
    O96     O    0.04234   0.60245   0.48349   1.000
    O97     O    0.98385   0.40936   0.53139   1.000
    O98     O    0.93120   0.68905   0.47204   1.000
    H99     H    0.05271   0.63602   0.45760   1.000
    O100    O    0.99553   0.55868   0.47810   1.000
    O101    O    0.05479   0.46668   0.47869   1.000
    H102    H    0.92840   0.71397   0.48753   1.000
    Ti103   Ti   0.07790   0.53806   0.44060   1.000
    O104    O    0.04873   0.62798   0.38234   1.000
    H105    H    0.00811   0.64029   0.38984   1.000
    H106    H    0.89342   0.69980   0.46880   1.000
    O107    O    0.96234   0.48946   0.45701   1.000
    H108    H    0.06389   0.44461   0.45491   1.000
    S109    S    0.98952   0.42447   0.46892   1.000
    O110    O    0.05072   0.41023   0.43630   1.000
    O111    O    0.95812   0.40260   0.46467   1.000
    H112    H    0.06815   0.61442   0.34981   1.000
    O113    O    0.10121   0.53699   0.36925   1.000
    H114    H    0.13645   0.50907   0.35419   1.000
    H115    H    0.94601   0.66775   0.58349   1.000
    C116    C    0.77261   0.44264   0.70240   1.000
    C117    C    0.77250   0.67972   0.45609   1.000
    C118    C    0.76632   0.67481   0.70240   1.000
    C119    C    0.82854   0.44746   0.66952   1.000
    N120    N    0.85117   0.45830   0.61304   1.000
    N121    N    0.86051   0.44929   0.68969   1.000
    N122    N    0.90219   0.46283   0.64490   1.000
    C123    C    0.82738   0.64676   0.46577   1.000
    N124    N    0.85618   0.66414   0.47520   1.000
    N125    N    0.84851   0.58973   0.48004   1.000
    N126    N    0.89010   0.57302   0.49788   1.000
    C127    C    0.82029   0.64065   0.67226   1.000
    N128    N    0.85002   0.66073   0.61775   1.000
    N129    N    0.84425   0.58405   0.69381   1.000
    N130    N    0.88824   0.56944   0.65168   1.000
    N131    N    0.89691   0.46781   0.59873   1.000
    N132    N    0.89139   0.61612   0.60538   1.000
    N133    N    0.89398   0.61765   0.49582   1.000
    C134    C    0.28921   0.36467   0.58156   1.000
    C135    C    0.27659   0.58139   0.37586   1.000
    C136    C    0.28413   0.35876   0.37910   1.000
    C137    C    0.23285   0.39983   0.57604   1.000
    N138    N    0.20236   0.38100   0.57078   1.000
    N139    N    0.20507   0.45439   0.57339   1.000
    N140    N    0.15664   0.42446   0.56358   1.000
    N141    N    0.15760   0.46843   0.56548   1.000
    C142    C    0.21858   0.58244   0.40225   1.000
    N143    N    0.19191   0.57029   0.46055   1.000
    N144    N    0.18825   0.57831   0.38209   1.000
    N145    N    0.14633   0.55962   0.47330   1.000
    N146    N    0.14565   0.56438   0.42515   1.000
    C147    C    0.22953   0.38974   0.41214   1.000
    N148    N    0.20114   0.36703   0.46669   1.000
    N149    N    0.20252   0.44597   0.39283   1.000
    N150    N    0.15722   0.41072   0.47995   1.000
    N151    N    0.15820   0.45791   0.43584   1.000
    H152    H    0.56999   0.55446   0.58316   1.000
    O153    O    0.50061   0.48116   0.52979   1.000
    O154    O    0.55526   0.54002   0.57129   1.000
    O155    O    0.32957   0.60647   0.65824   1.000
    H156    H    0.41387   0.69101   0.51350   1.000
    O157    O    0.41763   0.65617   0.54565   1.000
    S158    S    0.32529   0.57915   0.63084   1.000
    O159    O    0.27076   0.58514   0.63665   1.000
    H160    H    0.39171   0.63818   0.55340   1.000
    O161    O    0.36382   0.59374   0.56670   1.000
    O162    O    0.50009   0.67366   0.46497   1.000
    H163    H    0.45201   0.61769   0.45950   1.000
    Ti164   Ti   0.50626   0.60459   0.52057   1.000
    H165    H    0.53104   0.68788   0.44855   1.000
    O166    O    0.47110   0.58621   0.48652   1.000
    H167    H    0.50290   0.56936   0.36888   1.000
    O168    O    0.52864   0.57608   0.37704   1.000
    Ti169   Ti   0.42715   0.51946   0.57221   1.000
    O170    O    0.36493   0.51490   0.64680   1.000
    O171    O    0.46506   0.54759   0.58593   1.000
    H172    H    0.56661   0.56856   0.34897   1.000
    O173    O    0.56664   0.54752   0.48172   1.000
    O174    O    0.41700   0.51399   0.69953   1.000
    Ti175   Ti   0.53882   0.52038   0.45705   1.000
    H176    H    0.39472   0.50757   0.68657   1.000
    Ti177   Ti   0.50685   0.49445   0.63640   1.000
    H178    H    0.63882   0.47765   0.38293   1.000
    O179    O    0.62093   0.51258   0.39156   1.000
    H180    H    0.64788   0.50933   0.40806   1.000
    Ti181   Ti   0.61998   0.48756   0.52604   1.000
    O182    O    0.47180   0.45034   0.63421   1.000
    O183    O    0.67808   0.49778   0.44354   1.000
    O184    O    0.50465   0.44282   0.72129   1.000
    H185    H    0.45315   0.42447   0.66700   1.000
    O186    O    0.56755   0.44613   0.59149   1.000
    O187    O    0.60146   0.44642   0.49902   1.000
    H188    H    0.46559   0.46051   0.74343   1.000
    Ti189   Ti   0.54559   0.40803   0.57019   1.000
    O190    O    0.54051   0.34891   0.66047   1.000
    H191    H    0.55801   0.35822   0.67466   1.000
    H192    H    0.53223   0.44320   0.73232   1.000
    O193    O    0.69161   0.42334   0.52427   1.000
    H194    H    0.63899   0.42236   0.47751   1.000
    S195    S    0.71936   0.43500   0.45937   1.000
    O196    O    0.70555   0.40304   0.44413   1.000
    O197    O    0.77739   0.42949   0.43883   1.000
    H198    H    0.57044   0.31720   0.64654   1.000
    O199    O    0.60013   0.33789   0.56939   1.000
    H200    H    0.61558   0.32442   0.53804   1.000
    H201    H    0.39746   0.55485   0.69301   1.000
    C202    C    0.65677   0.44932   0.67281   1.000
    N203    N    0.60128   0.45580   0.69259   1.000
    N204    N    0.67916   0.45669   0.61708   1.000
    N205    N    0.63669   0.46847   0.60302   1.000
    C206    C    0.46694   0.64222   0.66893   1.000
    N207    N    0.47408   0.66214   0.61333   1.000
    N208    N    0.47338   0.58700   0.69171   1.000
    N209    N    0.48540   0.57323   0.64907   1.000
    C210    C    0.65803   0.63575   0.47713   1.000
    N211    N    0.60377   0.65819   0.47747   1.000
    N212    N    0.67724   0.57876   0.49371   1.000
    N213    N    0.63516   0.56668   0.50302   1.000
    N214    N    0.58992   0.46854   0.64818   1.000
    N215    N    0.59015   0.61453   0.49422   1.000
    N216    N    0.48575   0.61903   0.60146   1.000
    C217    C    0.56595   0.38233   0.42128   1.000
    N218    N    0.56337   0.43614   0.40074   1.000
    N219    N    0.55975   0.35934   0.47705   1.000
    N220    N    0.55243   0.40004   0.49043   1.000
    C221    C    0.39075   0.54768   0.42970   1.000
    N222    N    0.37025   0.53680   0.48618   1.000
    N223    N    0.44553   0.54451   0.40869   1.000
    N224    N    0.45793   0.53128   0.45276   1.000
    C225    C    0.40363   0.37641   0.59667   1.000
    N226    N    0.38029   0.43031   0.59540   1.000
    N227    N    0.45808   0.35280   0.59540   1.000
    N228    N    0.46841   0.39323   0.59237   1.000
    N229    N    0.55481   0.44578   0.44460   1.000
    N230    N    0.42120   0.43979   0.59242   1.000
    N231    N    0.41282   0.52763   0.49885   1.000
    H232    H    0.56593   0.56253   0.90864   1.000
    O233    O    0.50910   0.49149   0.10636   1.000
    O234    O    0.55279   0.54857   0.94976   1.000
    O235    O    0.63655   0.61441   0.02576   1.000
    H236    H    0.49409   0.70120   0.99214   1.000
    O237    O    0.52480   0.66466   0.99517   1.000
    S238    S    0.60785   0.58862   0.08447   1.000
    O239    O    0.61170   0.59614   0.12753   1.000
    H240    H    0.53065   0.64788   0.03254   1.000
    O241    O    0.54394   0.60362   0.09298   1.000
    O242    O    0.44854   0.68465   0.96638   1.000
    H243    H    0.43575   0.62988   0.08351   1.000
    Ti244   Ti   0.50045   0.61394   0.98255   1.000
    H245    H    0.43599   0.69914   0.93406   1.000
    O246    O    0.46330   0.59816   0.06974   1.000
    H247    H    0.34619   0.58201   0.17084   1.000
    O248    O    0.35565   0.58901   0.12989   1.000
    Ti249   Ti   0.55116   0.52872   0.10001   1.000
    O250    O    0.62493   0.52408   0.09517   1.000
    O251    O    0.56516   0.55646   0.01978   1.000
    H252    H    0.32762   0.58326   0.12564   1.000
    O253    O    0.46271   0.55623   0.01915   1.000
    O254    O    0.67944   0.52207   0.99168   1.000
    Ti255   Ti   0.43642   0.53159   0.09841   1.000
    H256    H    0.66619   0.51519   0.03346   1.000
    Ti257   Ti   0.61730   0.50339   0.98221   1.000
    H258    H    0.36189   0.49080   0.11604   1.000
    O259    O    0.37181   0.52430   0.08822   1.000
    H260    H    0.38912   0.51882   0.04899   1.000
    Ti261   Ti   0.50839   0.49561   0.98339   1.000
    O262    O    0.61428   0.46024   0.06448   1.000
    O263    O    0.42454   0.50699   0.99602   1.000
    O264    O    0.70387   0.45037   0.95422   1.000
    H265    H    0.64708   0.43280   0.07715   1.000
    O266    O    0.57341   0.45540   0.01389   1.000
    O267    O    0.48090   0.45527   0.06932   1.000
    H268    H    0.72473   0.46842   0.95439   1.000
    Ti269   Ti   0.55084   0.41765   0.09605   1.000
    O270    O    0.64292   0.35884   0.07143   1.000
    H271    H    0.65629   0.36558   0.03102   1.000
    H272    H    0.71596   0.45077   0.91525   1.000
    O273    O    0.50707   0.43287   0.97665   1.000
    H274    H    0.45998   0.43122   0.07736   1.000
    S275    S    0.44179   0.44454   0.00152   1.000
    O276    O    0.42732   0.41184   0.06229   1.000
    O277    O    0.42174   0.43982   0.96845   1.000
    H278    H    0.62953   0.32667   0.09041   1.000
    O279    O    0.55244   0.34639   0.11714   1.000
    H280    H    0.52446   0.33085   0.15072   1.000
    H281    H    0.67231   0.56288   0.97699   1.000
    C282    C    0.65724   0.45510   0.84171   1.000
    N283    N    0.67692   0.46413   0.86920   1.000
    N284    N    0.60208   0.46055   0.86886   1.000
    N285    N    0.58783   0.47388   0.91221   1.000
    C286    C    0.65225   0.64957   0.84226   1.000
    N287    N    0.59557   0.67019   0.86743   1.000
    N288    N    0.67461   0.59411   0.86962   1.000
    N289    N    0.63063   0.58097   0.91125   1.000
    C290    C    0.45746   0.64253   0.84348   1.000
    N291    N    0.45671   0.66354   0.87631   1.000
    N292    N    0.47337   0.58563   0.86512   1.000
    N293    N    0.48343   0.57231   0.91066   1.000
    N294    N    0.63258   0.47638   0.91234   1.000
    N295    N    0.47398   0.61937   0.91693   1.000
    N296    N    0.58274   0.62726   0.90982   1.000
    C297    C    0.39990   0.39034   0.23941   1.000
    N298    N    0.37826   0.44523   0.21028   1.000
    N299    N    0.45684   0.36964   0.21567   1.000
    N300    N    0.46988   0.41238   0.17278   1.000
    C301    C    0.40566   0.55621   0.24841   1.000
    N302    N    0.46154   0.54924   0.22350   1.000
    N303    N    0.38658   0.55235   0.21659   1.000
    N304    N    0.43125   0.54202   0.17303   1.000
    C305    C    0.58558   0.37967   0.24071   1.000
    N306    N    0.57971   0.43479   0.21403   1.000
    N307    N    0.58167   0.35924   0.21037   1.000
    N308    N    0.57285   0.40241   0.16541   1.000
    N309    N    0.42288   0.45756   0.16966   1.000
    N310    N    0.57153   0.44807   0.16785   1.000
    N311    N    0.47598   0.54059   0.17665   1.000
    H312    H    0.56266   0.88096   0.58753   1.000
    O313    O    0.49601   0.07777   0.51543   1.000
    O314    O    0.54840   0.92207   0.57398   1.000
    O315    O    0.31791   0.00639   0.64069   1.000
    H316    H    0.41163   0.96819   0.72538   1.000
    O317    O    0.41368   0.97090   0.68939   1.000
    S318    S    0.31751   0.06373   0.61291   1.000
    O319    O    0.26465   0.10972   0.61809   1.000
    H320    H    0.38772   0.00870   0.67230   1.000
    O321    O    0.35971   0.06951   0.62781   1.000
    O322    O    0.49848   0.94252   0.70964   1.000
    H323    H    0.45469   0.05569   0.65353   1.000
    Ti324   Ti   0.50257   0.95593   0.63918   1.000
    H325    H    0.52845   0.91015   0.72500   1.000
    O326    O    0.47085   0.04237   0.62184   1.000
    H327    H    0.51153   0.13788   0.60551   1.000
    O328    O    0.53354   0.09674   0.61228   1.000
    Ti329   Ti   0.42177   0.07296   0.55361   1.000
    O330    O    0.35587   0.07124   0.54894   1.000
    O331    O    0.45876   0.99304   0.58151   1.000
    H332    H    0.57326   0.08961   0.60450   1.000
    O333    O    0.56407   0.99005   0.58000   1.000
    O334    O    0.40454   0.96778   0.54776   1.000
    Ti335   Ti   0.53837   0.06851   0.55399   1.000
    H336    H    0.38306   0.00945   0.54170   1.000
    Ti337   Ti   0.49692   0.95485   0.52865   1.000
    H338    H    0.63907   0.08260   0.51055   1.000
    O339    O    0.62292   0.05568   0.54494   1.000
    H340    H    0.64914   0.01614   0.53947   1.000
    Ti341   Ti   0.61372   0.95309   0.51998   1.000
    O342    O    0.46173   0.03771   0.48513   1.000
    O343    O    0.67645   0.96361   0.52747   1.000
    O344    O    0.48979   0.92455   0.47953   1.000
    H345    H    0.44298   0.05117   0.45811   1.000
    O346    O    0.55853   0.98433   0.47970   1.000
    O347    O    0.59720   0.03944   0.47831   1.000
    H348    H    0.45011   0.92606   0.49738   1.000
    Ti349   Ti   0.53764   0.06788   0.44169   1.000
    O350    O    0.52929   0.04283   0.38386   1.000
    H351    H    0.55141   0.00263   0.39106   1.000
    H352    H    0.51573   0.88504   0.48134   1.000
    O353    O    0.68335   0.94529   0.45499   1.000
    H354    H    0.63503   0.04601   0.45314   1.000
    S355    S    0.71512   0.96818   0.46446   1.000
    O356    O    0.70255   0.02889   0.43155   1.000
    O357    O    0.77320   0.93364   0.45865   1.000
    H358    H    0.55485   0.06255   0.35061   1.000
    O359    O    0.58537   0.09026   0.36993   1.000
    H360    H    0.59491   0.12396   0.35452   1.000
    H361    H    0.38621   0.95210   0.58854   1.000
    C362    C    0.64568   0.80802   0.48433   1.000
    N363    N    0.58933   0.83665   0.49228   1.000
    N364    N    0.66816   0.83380   0.49153   1.000
    N365    N    0.62581   0.87792   0.50394   1.000
    C366    C    0.45763   0.81538   0.67365   1.000
    N367    N    0.46816   0.83978   0.69507   1.000
    N368    N    0.46049   0.84532   0.61923   1.000
    N369    N    0.47407   0.88735   0.60732   1.000
    C370    C    0.65488   0.81980   0.67011   1.000
    N371    N    0.60040   0.85132   0.69078   1.000
    N372    N    0.67438   0.84114   0.61321   1.000
    N373    N    0.63136   0.88458   0.59932   1.000
    N374    N    0.57828   0.87953   0.50508   1.000
    N375    N    0.58649   0.89044   0.64621   1.000
    N376    N    0.47850   0.88412   0.65349   1.000
    C377    C    0.57205   0.21296   0.41505   1.000
    N378    N    0.56975   0.18253   0.46943   1.000
    N379    N    0.55975   0.18956   0.39409   1.000
    N380    N    0.54906   0.14517   0.43609   1.000
    C381    C    0.39737   0.21969   0.57651   1.000
    N382    N    0.37271   0.19493   0.57091   1.000
    N383    N    0.45186   0.18697   0.57398   1.000
    N384    N    0.46016   0.14297   0.56552   1.000
    C385    C    0.39528   0.21417   0.40461   1.000
    N386    N    0.37279   0.18905   0.46046   1.000
    N387    N    0.44955   0.18227   0.38378   1.000
    N388    N    0.46046   0.13802   0.42742   1.000
    N389    N    0.55526   0.14084   0.48100   1.000
    N390    N    0.41393   0.14208   0.47360   1.000
    N391    N    0.41287   0.14724   0.56426   1.000
    O392    O    0.29357   0.65273   0.24231   1.000
    O393    O    0.25656   0.58865   0.27535   1.000
    O394    O    0.20538   0.56647   0.49776   1.000
    O395    O    0.27924   0.62397   0.46817   1.000
    O396    O    0.58759   0.25263   0.27636   1.000
    O397    O    0.66852   0.22909   0.28541   1.000
    O398    O    0.62259   0.44435   0.28129   1.000
    O399    O    0.52973   0.47402   0.30696   1.000
    O400    O    0.30142   0.30311   0.51072   1.000
    O401    O    0.25648   0.26656   0.59999   1.000
    O402    O    0.45994   0.22991   0.63994   1.000
    O403    O    0.49472   0.26844   0.54852   1.000
    O404    O    0.25890   0.46961   0.27451   1.000
    O405    O    0.30612   0.47293   0.31281   1.000
    O406    O    0.44517   0.25582   0.25241   1.000
    O407    O    0.48864   0.26149   0.29278   1.000
    O408    O    0.78995   0.76702   0.47208   1.000
    O409    O    0.76886   0.80641   0.39421   1.000
    O410    O    0.82572   0.63223   0.37704   1.000
    O411    O    0.77730   0.57560   0.42279   1.000
    O412    O    0.39450   0.78917   0.81427   1.000
    O413    O    0.48711   0.75358   0.79512   1.000
    O414    O    0.51319   0.75125   0.58084   1.000
    O415    O    0.42081   0.78372   0.60020   1.000
    O416    O    0.79702   0.40863   0.81436   1.000
    O417    O    0.76617   0.50041   0.77353   1.000
    O418    O    0.56535   0.49944   0.77694   1.000
    O419    O    0.59001   0.40723   0.81137   1.000
    O420    O    0.79547   0.78202   0.59970   1.000
    O421    O    0.75705   0.74546   0.58337   1.000
    O422    O    0.56269   0.77903   0.79150   1.000
    O423    O    0.61492   0.79172   0.81608   1.000
