#======================================================================

# CRYSTAL DATA

#----------------------------------------------------------------------

data_VESTA_phase_1


_chemical_name_common                  'D:\! BYU CALCULATION\Acidic MOF Patent'
_cell_length_a                         35.02212
_cell_length_b                         35.19635
_cell_length_c                         35.90909
_cell_angle_alpha                      89.98099
_cell_angle_beta                       89.99052
_cell_angle_gamma                      89.43108
_space_group_name_H-M_alt              'P 1'
_space_group_IT_number                 1

loop_
_space_group_symop_operation_xyz
   'x, y, z'
   'x+1/2, y+1/2, z'
   'x+1/2, y, z+1/2'
   'x, y+1/2, z+1/2'

loop_
   _atom_site_label
   _atom_site_occupancy
   _atom_site_fract_x
   _atom_site_fract_y
   _atom_site_fract_z
   _atom_site_adp_type
   _atom_site_B_iso_or_equiv
   _atom_site_type_symbol
   H0         1.0     0.137690      0.329200      0.378930     Biso  1.000000 H
   H1         1.0     0.494100      0.694680      0.378650     Biso  1.000000 H
   H2         1.0     0.637775      0.691365      0.513400     Biso  1.000000 H
   H3         1.0     0.498855      0.834255      0.515950     Biso  1.000000 H
   H4         1.0     0.674750      0.540595      0.552195     Biso  1.000000 H
   H5         1.0     0.661850      0.658195      0.660555     Biso  1.000000 H
   H6         1.0     0.346190      0.482445      0.311445     Biso  1.000000 H
   H7         1.0     0.282370      0.541265      0.312205     Biso  1.000000 H
   H8         1.0     0.844720      0.541805      0.587375     Biso  1.000000 H
   H9         1.0     0.784655      0.482090      0.584895     Biso  1.000000 H
   H10        1.0     0.435120      0.481090      0.228070     Biso  1.000000 H
   H11        1.0     0.696775      0.542620      0.725525     Biso  1.000000 H
   H12        1.0     0.432850      0.540965      0.171345     Biso  1.000000 H
   H13        1.0     0.697340      0.479105      0.669695     Biso  1.000000 H
   H14        1.0     0.347235      0.396140      0.225845     Biso  1.000000 H
   H15        1.0     0.783305      0.629315      0.728430     Biso  1.000000 H
   H16        1.0     0.844765      0.627635      0.673110     Biso  1.000000 H
   H17        1.0     0.287285      0.394230      0.168765     Biso  1.000000 H
   H18        1.0     0.530815      0.797290      0.329745     Biso  1.000000 H
   H19        1.0     0.599095      0.727780      0.330665     Biso  1.000000 H
   H20        1.0     0.536525      0.725325      0.563160     Biso  1.000000 H
   H21        1.0     0.601030      0.796875      0.564485     Biso  1.000000 H
   H22        1.0     0.443575      0.798035      0.414980     Biso  1.000000 H
   H23        1.0     0.188725      0.226115      0.413180     Biso  1.000000 H
   H24        1.0     0.444390      0.733190      0.483580     Biso  1.000000 H
   H25        1.0     0.188090      0.293715      0.479555     Biso  1.000000 H
   H26        1.0     0.532380      0.881820      0.417060     Biso  1.000000 H
   H27        1.0     0.600000      0.641555      0.416195     Biso  1.000000 H
   H28        1.0     0.526900      0.641560      0.475920     Biso  1.000000 H
   H29        1.0     0.102915      0.383295      0.479230     Biso  1.000000 H
   C30        1.0     0.408100      0.520565      0.288805     Biso  1.000000 C
   C31        1.0     0.221115      0.503310      0.286605     Biso  1.000000 C
   C32        1.0     0.407860      0.503785      0.110105     Biso  1.000000 C
   C33        1.0     0.722090      0.519010      0.609240     Biso  1.000000 C
   C34        1.0     0.392475      0.485280      0.271715     Biso  1.000000 C
   C35        1.0     0.737625      0.538570      0.770625     Biso  1.000000 C
   C36        1.0     0.891025      0.538420      0.627175     Biso  1.000000 C
   C37        1.0     0.739020      0.483810      0.625430     Biso  1.000000 C
   C38        1.0     0.359445      0.469385      0.286940     Biso  1.000000 C
   C39        1.0     0.269925      0.554435      0.287350     Biso  1.000000 C
   C40        1.0     0.858075      0.554475      0.611840     Biso  1.000000 C
   C41        1.0     0.772165      0.468505      0.609400     Biso  1.000000 C
   C42        1.0     0.410110      0.419505      0.189655     Biso  1.000000 C
   C43        1.0     0.721475      0.604485      0.688780     Biso  1.000000 C
   C44        1.0     0.407000      0.603020      0.209650     Biso  1.000000 C
   C45        1.0     0.224090      0.417855      0.206955     Biso  1.000000 C
   C46        1.0     0.393115      0.436550      0.223925     Biso  1.000000 C
   C47        1.0     0.738085      0.587950      0.723565     Biso  1.000000 C
   C48        1.0     0.890805      0.586415      0.675190     Biso  1.000000 C
   C49        1.0     0.740335      0.434555      0.672390     Biso  1.000000 C
   C50        1.0     0.307770      0.421010      0.286710     Biso  1.000000 C
   C51        1.0     0.321315      0.603125      0.289360     Biso  1.000000 C
   C52        1.0     0.806140      0.602665      0.611615     Biso  1.000000 C
   C53        1.0     0.325565      0.420990      0.108885     Biso  1.000000 C
   C54        1.0     0.343325      0.437185      0.270740     Biso  1.000000 C
   C55        1.0     0.786250      0.586995      0.772135     Biso  1.000000 C
   C56        1.0     0.841595      0.586705      0.628130     Biso  1.000000 C
   C57        1.0     0.789405      0.436300      0.624895     Biso  1.000000 C
   C58        1.0     0.409390      0.468785      0.240215     Biso  1.000000 C
   C59        1.0     0.721785      0.555210      0.738765     Biso  1.000000 C
   C60        1.0     0.407435      0.554205      0.159030     Biso  1.000000 C
   C61        1.0     0.723040      0.466940      0.656920     Biso  1.000000 C
   C62        1.0     0.360070      0.420860      0.239130     Biso  1.000000 C
   C63        1.0     0.770315      0.603855      0.740260     Biso  1.000000 C
   C64        1.0     0.857810      0.602755      0.659805     Biso  1.000000 C
   C65        1.0     0.273495      0.419235      0.156450     Biso  1.000000 C
   C66        1.0     0.469920      0.758420      0.354460     Biso  1.000000 C
   C67        1.0     0.161525      0.265825      0.354080     Biso  1.000000 C
   C68        1.0     0.475375      0.769200      0.541985     Biso  1.000000 C
   C69        1.0     0.660500      0.755115      0.538995     Biso  1.000000 C
   C70        1.0     0.485055      0.794540      0.370175     Biso  1.000000 C
   C71        1.0     0.146080      0.229895      0.369725     Biso  1.000000 C
   C72        1.0     0.488295      0.732240      0.525905     Biso  1.000000 C
   C73        1.0     0.646575      0.792210      0.524195     Biso  1.000000 C
   C74        1.0     0.517880      0.810260      0.354480     Biso  1.000000 C
   C75        1.0     0.612710      0.714440      0.354860     Biso  1.000000 C
   C76        1.0     0.520830      0.713775      0.539435     Biso  1.000000 C
   C77        1.0     0.614520      0.809680      0.540120     Biso  1.000000 C
   C78        1.0     0.471040      0.857680      0.454690     Biso  1.000000 C
   C79        1.0     0.663560      0.666405      0.452765     Biso  1.000000 C
   C80        1.0     0.466160      0.671090      0.441590     Biso  1.000000 C
   C81        1.0     0.163235      0.354615      0.440430     Biso  1.000000 C
   C82        1.0     0.485780      0.842330      0.418690     Biso  1.000000 C
   C83        1.0     0.646830      0.681505      0.417595     Biso  1.000000 C
   C84        1.0     0.483045      0.685080      0.477105     Biso  1.000000 C
   C85        1.0     0.147905      0.340635      0.476430     Biso  1.000000 C
   C86        1.0     0.071725      0.356100      0.356215     Biso  1.000000 C
   C87        1.0     0.558715      0.668675      0.357360     Biso  1.000000 C
   C88        1.0     0.571730      0.664685      0.535145     Biso  1.000000 C
   C89        1.0     0.562870      0.858765      0.538725     Biso  1.000000 C
   C90        1.0     0.034800      0.341920      0.371010     Biso  1.000000 C
   C91        1.0     0.596185      0.682675      0.371540     Biso  1.000000 C
   C92        1.0     0.534740      0.680930      0.521770     Biso  1.000000 C
   C93        1.0     0.599120      0.842570      0.524070     Biso  1.000000 C
   C94        1.0     0.468865      0.810635      0.402200     Biso  1.000000 C
   C95        1.0     0.663140      0.713465      0.401045     Biso  1.000000 C
   C96        1.0     0.469250      0.717850      0.494610     Biso  1.000000 C
   C97        1.0     0.663410      0.807785      0.492505     Biso  1.000000 C
   C98        1.0     0.518740      0.857925      0.403155     Biso  1.000000 C
   C99        1.0     0.613330      0.666070      0.402880     Biso  1.000000 C
   C100       1.0     0.515865      0.666545      0.490700     Biso  1.000000 C
   C101       1.0     0.615735      0.858170      0.492195     Biso  1.000000 C
   O102       1.0     0.439320      0.533640      0.275250     Biso  1.000000 O
   O103       1.0     0.691310      0.489675      0.771575     Biso  1.000000 O
   O104       1.0     0.437960      0.490270      0.125030     Biso  1.000000 O
   O105       1.0     0.691310      0.532265      0.623205     Biso  1.000000 O
   O106       1.0     0.640230      0.739535      0.564065     Biso  1.000000 O
   O107       1.0     0.494485      0.783365      0.569210     Biso  1.000000 O
   O108       1.0     0.142575      0.281255      0.327710     Biso  1.000000 O
   O109       1.0     0.489245      0.742745      0.328820     Biso  1.000000 O
   O110       1.0     0.639730      0.624900      0.577900     Biso  1.000000 O
   O111       1.0     0.409160      0.607800      0.294700     Biso  1.000000 O
   O112       1.0     0.219795      0.416100      0.292235     Biso  1.000000 O
   O113       1.0     0.413290      0.416925      0.104145     Biso  1.000000 O
   O114       1.0     0.718705      0.606400      0.603135     Biso  1.000000 O
   O115       1.0     0.395250      0.389100      0.177050     Biso  1.000000 O
   O116       1.0     0.735830      0.635555      0.676455     Biso  1.000000 O
   O117       1.0     0.889805      0.631965      0.722820     Biso  1.000000 O
   O118       1.0     0.239710      0.387300      0.219700     Biso  1.000000 O
   O119       1.0     0.293535      0.437725      0.314920     Biso  1.000000 O
   O120       1.0     0.334375      0.587340      0.318705     Biso  1.000000 O
   O121       1.0     0.793305      0.585470      0.583195     Biso  1.000000 O
   O122       1.0     0.838000      0.436645      0.578985     Biso  1.000000 O
   O123       1.0     0.546835      0.885245      0.520460     Biso  1.000000 O
   O124       1.0     0.586825      0.636265      0.518010     Biso  1.000000 O
   O125       1.0     0.542305      0.642835      0.376180     Biso  1.000000 O
   O126       1.0     0.086930      0.384610      0.373130     Biso  1.000000 O
   O127       1.0     0.189610      0.335305      0.425235     Biso  1.000000 O
   O128       1.0     0.437775      0.689450      0.427265     Biso  1.000000 O
   O129       1.0     0.690050      0.685065      0.468035     Biso  1.000000 O
   O130       1.0     0.444495      0.839235      0.470520     Biso  1.000000 O
   O131       1.0     0.700930      0.687875      0.581845     Biso  1.000000 O
   O132       1.0     0.704820      0.624930      0.523670     Biso  1.000000 O
   O133       1.0     0.439560      0.744845      0.369345     Biso  1.000000 O
   O134       1.0     0.191365      0.279225      0.369300     Biso  1.000000 O
   O135       1.0     0.447075      0.784835      0.526150     Biso  1.000000 O
   O136       1.0     0.690605      0.741175      0.524220     Biso  1.000000 O
   O137       1.0     0.740230      0.533435      0.581955     Biso  1.000000 O
   O138       1.0     0.890885      0.490195      0.581690     Biso  1.000000 O
   O139       1.0     0.238435      0.489230      0.314785     Biso  1.000000 O
   O140       1.0     0.389135      0.535315      0.315140     Biso  1.000000 O
   O141       1.0     0.758520      0.650640      0.561300     Biso  1.000000 O
   O142       1.0     0.477830      0.679010      0.363060     Biso  1.000000 O
   O143       1.0     0.153265      0.345250      0.363005     Biso  1.000000 O
   O144       1.0     0.483165      0.849925      0.532430     Biso  1.000000 O
   O145       1.0     0.653185      0.675160      0.529635     Biso  1.000000 O
   O146       1.0     0.487360      0.887145      0.467625     Biso  1.000000 O
   O147       1.0     0.648410      0.636140      0.466270     Biso  1.000000 O
   O148       1.0     0.482765      0.642690      0.427155     Biso  1.000000 O
   O149       1.0     0.147020      0.384310      0.426480     Biso  1.000000 O
   O150       1.0     0.086510      0.338255      0.329235     Biso  1.000000 O
   O151       1.0     0.545350      0.684935      0.328335     Biso  1.000000 O
   O152       1.0     0.586500      0.682070      0.562320     Biso  1.000000 O
   O153       1.0     0.549395      0.843035      0.568240     Biso  1.000000 O
   O154       1.0     0.341675      0.393905      0.126130     Biso  1.000000 O
   O155       1.0     0.791350      0.632060      0.626800     Biso  1.000000 O
   O156       1.0     0.835820      0.631855      0.773235     Biso  1.000000 O
   O157       1.0     0.294020      0.391520      0.271000     Biso  1.000000 O
   O158       1.0     0.696225      0.435405      0.721590     Biso  1.000000 O
   O159       1.0     0.436630      0.586960      0.223420     Biso  1.000000 O
   O160       1.0     0.694600      0.586495      0.673495     Biso  1.000000 O
   O161       1.0     0.438395      0.436580      0.175315     Biso  1.000000 O
   O162       1.0     0.676445      0.567900      0.556545     Biso  1.000000 O
   O163       1.0     0.671520      0.649735      0.635215     Biso  1.000000 O
   Zr164      1.0     0.663790      0.588525      0.618695     Biso  1.000000 Zr
   Zr165      1.0     0.733345      0.658650      0.619745     Biso  1.000000 Zr
   Zr166      1.0     0.739715      0.587510      0.552925     Biso  1.000000 Zr
   Zr167      1.0     0.717645      0.684120      0.524855     Biso  1.000000 Zr
   Zr168      1.0     0.648870      0.613390      0.522860     Biso  1.000000 Zr
   Zr169      1.0     0.642055      0.683115      0.590560     Biso  1.000000 Zr
   H170       1.0     0.784980      0.658500      0.558130     Biso  1.000000 H
   O171       1.0     0.652420      0.726150      0.636730     Biso  1.000000 O
   O172       1.0     0.599140      0.686390      0.633610     Biso  1.000000 O
   S173       1.0     0.619875      0.710825      0.662720     Biso  1.000000 S
   O174       1.0     0.638380      0.685630      0.690640     Biso  1.000000 O
   O175       1.0     0.596000      0.740995      0.677165     Biso  1.000000 O
   O176       1.0     0.797350      0.528470      0.484060     Biso  1.000000 O
   S177       1.0     0.768265      0.557905      0.482800     Biso  1.000000 S
   O178       1.0     0.781075      0.592580      0.507385     Biso  1.000000 O
   O179       1.0     0.732950      0.546150      0.507730     Biso  1.000000 O
   O180       1.0     0.754390      0.570925      0.446995     Biso  1.000000 O
   O181       1.0     0.718385      0.708960      0.658565     Biso  1.000000 O
   H182       1.0     0.715655      0.700010      0.684275     Biso  1.000000 H
   O183       1.0     0.763080      0.718590      0.522950     Biso  1.000000 O
   H184       1.0     0.759355      0.745665      0.527550     Biso  1.000000 H
   H185       1.0     0.691080      0.719260      0.651120     Biso  1.000000 H
   O186       1.0     0.780720      0.704465      0.621895     Biso  1.000000 O
   H187       1.0     0.770640      0.723045      0.640015     Biso  1.000000 H
   O188       1.0     0.761085      0.660410      0.482885     Biso  1.000000 O
   H189       1.0     0.771095      0.633985      0.488440     Biso  1.000000 H
   O190       1.0     0.666660      0.565255      0.482265     Biso  1.000000 O
   H191       1.0     0.670155      0.576390      0.457455     Biso  1.000000 H
   O192       1.0     0.601205      0.566005      0.521630     Biso  1.000000 O
   H193       1.0     0.578555      0.581130      0.514105     Biso  1.000000 H
   H194       1.0     0.606910      0.547745      0.501655     Biso  1.000000 H
   O195       1.0     0.618830      0.590665      0.653055     Biso  1.000000 O
   O196       1.0     0.614980      0.547540      0.599590     Biso  1.000000 O
   H197       1.0     0.603855      0.553530      0.575075     Biso  1.000000 H
   H198       1.0     0.597970      0.558295      0.619205     Biso  1.000000 H
   H199       1.0     0.693590      0.555590      0.489770     Biso  1.000000 H
   H200       1.0     0.804475      0.694005      0.632260     Biso  1.000000 H
   H201       1.0     0.614430      0.606955      0.674565     Biso  1.000000 H
   H202       1.0     0.781810      0.678715      0.486035     Biso  1.000000 H
   O203       1.0     0.575050      0.937490      0.627820     Biso  1.000000 O
   H204       1.0     0.530550      0.977120      0.528150     Biso  1.000000 H
   O205       1.0     0.534535      0.955495      0.544980     Biso  1.000000 O
   S206       1.0     0.542075      0.456045      0.144500     Biso  1.000000 S
   O207       1.0     0.547680      0.483915      0.173385     Biso  1.000000 O
   H208       1.0     0.530890      0.464320      0.071630     Biso  1.000000 H
   O209       1.0     0.515080      0.472770      0.113330     Biso  1.000000 O
   O210       1.0     0.490555      0.959245      0.489950     Biso  1.000000 O
   H211       1.0     0.458860      0.482080      0.051680     Biso  1.000000 H
   Zr212      1.0     0.489585      0.913850      0.524135     Biso  1.000000 Zr
   H213       1.0     0.981615      0.955735      0.964520     Biso  1.000000 H
   O214       1.0     0.455385      0.455630      0.059145     Biso  1.000000 O
   H215       1.0     0.880200      0.506215      0.521565     Biso  1.000000 H
   O216       1.0     0.889960      0.482635      0.510475     Biso  1.000000 O
   Zr217      1.0     0.466165      0.435165      0.120540     Biso  1.000000 Zr
   O218       1.0     0.513705      0.424200      0.158525     Biso  1.000000 O
   O219       1.0     0.492875      0.899875      0.581980     Biso  1.000000 O
   H220       1.0     0.870295      0.473850      0.492865     Biso  1.000000 H
   O221       1.0     0.430790      0.900075      0.522735     Biso  1.000000 O
   O222       1.0     0.536360      0.857770      0.638770     Biso  1.000000 O
   Zr223      1.0     0.394655      0.433520      0.053725     Biso  1.000000 Zr
   H224       1.0     0.529350      0.384545      0.149065     Biso  1.000000 H
   Zr225      1.0     0.492560      0.843860      0.592870     Biso  1.000000 Zr
   H226       1.0     0.826115      0.419985      0.515730     Biso  1.000000 H
   O227       1.0     0.852205      0.421470      0.506015     Biso  1.000000 O
   H228       1.0     0.858265      0.394270      0.495365     Biso  1.000000 H
   Zr229      1.0     0.420005      0.841665      0.527060     Biso  1.000000 Zr
   O230       1.0     0.460780      0.371840      0.139160     Biso  1.000000 O
   O231       1.0     0.371115      0.855160      0.487705     Biso  1.000000 O
   O232       1.0     0.493820      0.795040      0.638790     Biso  1.000000 O
   H233       1.0     0.466190      0.369480      0.165740     Biso  1.000000 H
   O234       1.0     0.435685      0.837660      0.583545     Biso  1.000000 O
   O235       1.0     0.377320      0.372435      0.062395     Biso  1.000000 O
   H236       1.0     0.515505      0.799230      0.655685     Biso  1.000000 H
   Zr237      1.0     0.396660      0.362405      0.121445     Biso  1.000000 Zr
   O238       1.0     0.415520      0.311560      0.160390     Biso  1.000000 O
   H239       1.0     0.440415      0.300105      0.153810     Biso  1.000000 H
   H240       1.0     0.499900      0.772475      0.623525     Biso  1.000000 H
   O241       1.0     0.374100      0.801285      0.526095     Biso  1.000000 O
   H242       1.0     0.350500      0.364440      0.055210     Biso  1.000000 H
   S243       1.0     0.343850      0.823865      0.503835     Biso  1.000000 S
   O244       1.0     0.317500      0.343255      0.030265     Biso  1.000000 O
   O245       1.0     0.826405      0.801710      0.974925     Biso  1.000000 O
   H246       1.0     0.394960      0.296420      0.148270     Biso  1.000000 H
   O247       1.0     0.360605      0.318290      0.119375     Biso  1.000000 O
   H248       1.0     0.340160      0.313965      0.101495     Biso  1.000000 H
   H249       1.0     0.561445      0.861485      0.627200     Biso  1.000000 H
   O250       1.0     0.878180      0.768930      0.771670     Biso  1.000000 O
   H251       1.0     0.984090      0.729555      0.739355     Biso  1.000000 H
   O252       1.0     0.965430      0.731235      0.759715     Biso  1.000000 O
   S253       1.0     0.863190      0.734885      0.754655     Biso  1.000000 S
   O254       1.0     0.833660      0.738330      0.726760     Biso  1.000000 O
   H255       1.0     0.939015      0.726745      0.749550     Biso  1.000000 H
   O256       1.0     0.896710      0.709005      0.739545     Biso  1.000000 O
   O257       1.0     0.523760      0.688505      0.256765     Biso  1.000000 O
   H258       1.0     0.463505      0.655995      0.233220     Biso  1.000000 H
   Zr259      1.0     0.488390      0.686250      0.300370     Biso  1.000000 Zr
   H260       1.0     0.551295      0.685560      0.259725     Biso  1.000000 H
   O261       1.0     0.454815      0.651770      0.258725     Biso  1.000000 O
   H262       1.0     0.499095      0.582685      0.211020     Biso  1.000000 H
   O263       1.0     0.509180      0.591650      0.234860     Biso  1.000000 O
   Zr264      1.0     0.390870      0.660420      0.276890     Biso  1.000000 Zr
   O265       1.0     0.849910      0.706895      0.786705     Biso  1.000000 O
   O266       1.0     0.428300      0.687800      0.312560     Biso  1.000000 O
   H267       1.0     0.527605      0.572365      0.243860     Biso  1.000000 H
   O268       1.0     0.491285      0.627615      0.314330     Biso  1.000000 O
   O269       1.0     0.868085      0.729430      0.852015     Biso  1.000000 O
   Zr270      1.0     0.462145      0.591265      0.280570     Biso  1.000000 Zr
   H271       1.0     0.858585      0.722645      0.825380     Biso  1.000000 H
   Zr272      1.0     0.415815      0.686780      0.366955     Biso  1.000000 Zr
   H273       1.0     0.503200      0.524425      0.295255     Biso  1.000000 H
   O274       1.0     0.512415      0.550550      0.293305     Biso  1.000000 O
   H275       1.0     0.522510      0.557185      0.320285     Biso  1.000000 H
   Zr276      1.0     0.485260      0.616335      0.371275     Biso  1.000000 Zr
   O277       1.0     0.370095      0.653990      0.337845     Biso  1.000000 O
   O278       1.0     0.528925      0.569875      0.358180     Biso  1.000000 O
   O279       1.0     0.367285      0.685200      0.413355     Biso  1.000000 O
   H280       1.0     0.342570      0.658445      0.339675     Biso  1.000000 H
   O281       1.0     0.426530      0.630050      0.373320     Biso  1.000000 O
   O282       1.0     0.451865      0.572770      0.340105     Biso  1.000000 O
   H283       1.0     0.349060      0.706170      0.409020     Biso  1.000000 H
   Zr284      1.0     0.390005      0.590140      0.347455     Biso  1.000000 Zr
   O285       1.0     0.346965      0.608190      0.394465     Biso  1.000000 O
   H286       1.0     0.353720      0.631615      0.407805     Biso  1.000000 H
   H287       1.0     0.382560      0.691435      0.435595     Biso  1.000000 H
   O288       1.0     0.488990      0.570390      0.410580     Biso  1.000000 O
   H289       1.0     0.460270      0.546435      0.348485     Biso  1.000000 H
   S290       1.0     0.513660      0.541620      0.388620     Biso  1.000000 S
   O291       1.0     0.488440      0.514410      0.369190     Biso  1.000000 O
   O292       1.0     0.543955      0.525420      0.410715     Biso  1.000000 O
   H293       1.0     0.354705      0.585990      0.409985     Biso  1.000000 H
   O294       1.0     0.389565      0.552675      0.389020     Biso  1.000000 O
   H295       1.0     0.401665      0.527795      0.391370     Biso  1.000000 H
   H296       1.0     0.879540      0.754610      0.849010     Biso  1.000000 H
   O297       1.0     0.236470      0.442275      0.448535     Biso  1.000000 O
   H298       1.0     0.281705      0.342140      0.409205     Biso  1.000000 H
   O299       1.0     0.259850      0.359460      0.412430     Biso  1.000000 O
   S300       1.0     0.256645      0.460190      0.417945     Biso  1.000000 S
   O301       1.0     0.283540      0.489740      0.425870     Biso  1.000000 O
   H302       1.0     0.268305      0.386545      0.408040     Biso  1.000000 H
   O303       1.0     0.275365      0.429010      0.392005     Biso  1.000000 O
   O304       1.0     0.263815      0.302035      0.370830     Biso  1.000000 O
   H305       1.0     0.285755      0.363745      0.338350     Biso  1.000000 H
   Zr306      1.0     0.217870      0.336660      0.369380     Biso  1.000000 Zr
   H307       1.0     0.260355      0.275090      0.365665     Biso  1.000000 H
   O308       1.0     0.259150      0.371565      0.334945     Biso  1.000000 O
   H309       1.0     0.307890      0.331955      0.267145     Biso  1.000000 H
   O310       1.0     0.285095      0.319045      0.276450     Biso  1.000000 O
   Zr311      1.0     0.238420      0.434690      0.343320     Biso  1.000000 Zr
   O312       1.0     0.225810      0.474640      0.388570     Biso  1.000000 O
   O313       1.0     0.203445      0.396025      0.370280     Biso  1.000000 O
   H314       1.0     0.276015      0.301835      0.256700     Biso  1.000000 H
   O315       1.0     0.203070      0.333530      0.312300     Biso  1.000000 O
   O316       1.0     0.159635      0.455635      0.410830     Biso  1.000000 O
   Zr317      1.0     0.235940      0.364050      0.276350     Biso  1.000000 Zr
   H318       1.0     0.186260      0.466240      0.403060     Biso  1.000000 H
   Zr319      1.0     0.147320      0.407070      0.369530     Biso  1.000000 Zr
   H320       1.0     0.221745      0.324080      0.210905     Biso  1.000000 H
   O321       1.0     0.225305      0.313840      0.236105     Biso  1.000000 O
   H322       1.0     0.198120      0.302755      0.243235     Biso  1.000000 H
   Zr323      1.0     0.144145      0.337415      0.301730     Biso  1.000000 Zr
   O324       1.0     0.174500      0.453245      0.336905     Biso  1.000000 O
   O325       1.0     0.159960      0.295265      0.255865     Biso  1.000000 O
   O326       1.0     0.097935      0.454570      0.366865     Biso  1.000000 O
   H327       1.0     0.171740      0.480555      0.340955     Biso  1.000000 H
   O328       1.0     0.140110      0.395670      0.314500     Biso  1.000000 O
   O329       1.0     0.174825      0.371940      0.258755     Biso  1.000000 O
   H330       1.0     0.103195      0.471300      0.388165     Biso  1.000000 H
   Zr331      1.0     0.164790      0.433000      0.275170     Biso  1.000000 Zr
   O332       1.0     0.614175      0.474000      0.791625     Biso  1.000000 O
   H333       1.0     0.602345      0.467745      0.815720     Biso  1.000000 H
   H334       1.0     0.076905      0.437270      0.373635     Biso  1.000000 H
   O335       1.0     0.104290      0.332745      0.256815     Biso  1.000000 O
   H336       1.0     0.166495      0.363480      0.232885     Biso  1.000000 H
   S337       1.0     0.127980      0.309725      0.228245     Biso  1.000000 S
   O338       1.0     0.146630      0.336535      0.202045     Biso  1.000000 O
   O339       1.0     0.107290      0.279095      0.211675     Biso  1.000000 O
   H340       1.0     0.598700      0.462290      0.771370     Biso  1.000000 H
   O341       1.0     0.620635      0.429995      0.739680     Biso  1.000000 O
   H342       1.0     0.617025      0.413060      0.718595     Biso  1.000000 H
   H343       1.0     0.165215      0.443720      0.435005     Biso  1.000000 H
