# CIF file generated by openbabel 3.0.0, see http://openbabel.sf.net
data_I
_chemical_name_common 'D:\! BYU CALCULATION\Acidic MOF Patent\Periodic_02_00\mof808_cellopt_pbesol-pos-final.pdb'
_cell_length_a 25.654
_cell_length_b 25.59
_cell_length_c 25.657
_cell_angle_alpha 60.19
_cell_angle_beta 60.01
_cell_angle_gamma 59.14
loop_
    _atom_site_label
    _atom_site_type_symbol
    _atom_site_fract_x
    _atom_site_fract_y
    _atom_site_fract_z
    _atom_site_occupancy
    H0      H    0.67748   0.71877   0.80106   1.000
    H1      H    0.68542   0.70214   0.52062   1.000
    H2      H    0.66332   0.99652   0.52110   1.000
    H3      H    0.95978   0.71805   0.52348   1.000
    H4      H    0.51806   0.22360   0.37418   1.000
    H5      H    0.76072   0.19131   0.36519   1.000
    H6      H    0.55069   0.71608   0.22193   1.000
    H7      H    0.67713   0.58223   0.22531   1.000
    H8      H    0.39817   0.42596   0.49228   1.000
    H9      H    0.37863   0.41277   0.37675   1.000
    H10     H    0.38845   0.70057   0.39368   1.000
    H11     H    0.68006   0.41581   0.21917   1.000
    H12     H    0.37732   0.58156   0.53285   1.000
    H13     H    0.55021   0.42099   0.21598   1.000
    H14     H    0.37751   0.73273   0.21765   1.000
    H15     H    0.68544   0.41039   0.38721   1.000
    H16     H    0.55674   0.42394   0.51026   1.000
    H17     H    0.38312   0.59302   0.22654   1.000
    H18     H    0.70554   0.58659   0.71373   1.000
    H19     H    0.58642   0.73055   0.69394   1.000
    H20     H    0.84922   0.90983   0.40676   1.000
    H21     H    0.86318   0.90177   0.54117   1.000
    H22     H    0.86775   0.59432   0.54127   1.000
    H23     H    0.53834   0.90940   0.71330   1.000
    H24     H    0.87890   0.72973   0.40362   1.000
    H25     H    0.69002   0.89758   0.70017   1.000
    H26     H    0.87114   0.59933   0.70403   1.000
    H27     H    0.55803   0.90583   0.53836   1.000
    H28     H    0.69754   0.88524   0.40319   1.000
    H29     H    0.87123   0.74832   0.71806   1.000
    C30     C    0.50826   0.70726   0.34616   1.000
    C31     C    0.67269   0.53992   0.14906   1.000
    C32     C    0.31229   0.54127   0.50978   1.000
    C33     C    0.50694   0.34589   0.33589   1.000
    C34     C    0.47234   0.71191   0.31111   1.000
    C35     C    0.67827   0.50296   0.21465   1.000
    C36     C    0.37930   0.50771   0.51230   1.000
    C37     C    0.46934   0.41125   0.30117   1.000
    C38     C    0.50129   0.71626   0.24680   1.000
    C39     C    0.67857   0.53239   0.24809   1.000
    C40     C    0.41717   0.44799   0.50298   1.000
    C41     C    0.40438   0.44157   0.33161   1.000
    C42     C    0.30905   0.71265   0.34374   1.000
    C43     C    0.68178   0.33704   0.33955   1.000
    C44     C    0.50317   0.54349   0.51758   1.000
    C45     C    0.50357   0.54701   0.14645   1.000
    C46     C    0.37534   0.71615   0.30968   1.000
    C47     C    0.68278   0.40465   0.30702   1.000
    C48     C    0.47099   0.50847   0.51791   1.000
    C49     C    0.46888   0.51055   0.21123   1.000
    C50     C    0.50271   0.71825   0.14664   1.000
    C51     C    0.67554   0.53510   0.34612   1.000
    C52     C    0.51621   0.34940   0.50112   1.000
    C53     C    0.30598   0.54169   0.34255   1.000
    C54     C    0.46898   0.72046   0.21341   1.000
    C55     C    0.68018   0.50008   0.31030   1.000
    C56     C    0.47999   0.41592   0.50512   1.000
    C57     C    0.37235   0.50704   0.30545   1.000
    C58     C    0.41012   0.70961   0.34217   1.000
    C59     C    0.68049   0.43920   0.24490   1.000
    C60     C    0.40665   0.53657   0.52148   1.000
    C61     C    0.50001   0.44563   0.24043   1.000
    C62     C    0.40507   0.72340   0.24490   1.000
    C63     C    0.68292   0.43603   0.33879   1.000
    C64     C    0.50675   0.44739   0.51106   1.000
    C65     C    0.40598   0.54078   0.24566   1.000
    C66     C    0.74630   0.59307   0.59040   1.000
    C67     C    0.56988   0.77896   0.77713   1.000
    C68     C    0.93863   0.78889   0.40838   1.000
    C69     C    0.73668   0.97065   0.57884   1.000
    C70     C    0.78273   0.58986   0.62398   1.000
    C71     C    0.56187   0.81557   0.71235   1.000
    C72     C    0.87212   0.81707   0.40490   1.000
    C73     C    0.77360   0.90865   0.61789   1.000
    C74     C    0.75386   0.58926   0.68709   1.000
    C75     C    0.57248   0.78301   0.67539   1.000
    C76     C    0.83160   0.87968   0.40543   1.000
    C77     C    0.83920   0.87824   0.59092   1.000
    C78     C    0.94012   0.60836   0.58098   1.000
    C79     C    0.55168   0.98253   0.58883   1.000
    C80     C    0.75939   0.76157   0.40424   1.000
    C81     C    0.74054   0.78460   0.78312   1.000
    C82     C    0.87690   0.59732   0.61870   1.000
    C83     C    0.55125   0.91485   0.62146   1.000
    C84     C    0.78601   0.80274   0.40281   1.000
    C85     C    0.77635   0.81965   0.71782   1.000
    C86     C    0.75030   0.59884   0.78251   1.000
    C87     C    0.58026   0.77852   0.57584   1.000
    C88     C    0.72679   0.97234   0.40633   1.000
    C89     C    0.94098   0.78177   0.59092   1.000
    C90     C    0.78454   0.59287   0.71692   1.000
    C91     C    0.56914   0.81521   0.61366   1.000
    C92     C    0.76871   0.90513   0.40443   1.000
    C93     C    0.87423   0.81871   0.62507   1.000
    C94     C    0.84451   0.59342   0.59087   1.000
    C95     C    0.54965   0.88190   0.68481   1.000
    C96     C    0.84822   0.77922   0.40371   1.000
    C97     C    0.74252   0.87760   0.68072   1.000
    C98     C    0.84623   0.59613   0.68196   1.000
    C99     C    0.55909   0.88099   0.58726   1.000
    C100    C    0.74668   0.86593   0.40348   1.000
    C101    C    0.84263   0.79195   0.68952   1.000
    N102    N    0.47511   0.71921   0.40181   1.000
    N103    N    0.68551   0.50818   0.11310   1.000
    N104    N    0.28485   0.60313   0.50369   1.000
    N105    N    0.56375   0.31078   0.30412   1.000
    N106    N    0.76077   0.98696   0.51568   1.000
    N107    N    0.95769   0.81957   0.42245   1.000
    N108    N    0.57923   0.71630   0.80277   1.000
    N109    N    0.68306   0.60925   0.61551   1.000
    O110    O    0.65881   0.12716   0.39563   1.000
    O111    O    0.59762   0.62766   0.43392   1.000
    O112    O    0.59442   0.63244   0.04851   1.000
    O113    O    0.21278   0.63246   0.43163   1.000
    O114    O    0.59792   0.24524   0.42707   1.000
    N115    N    0.28351   0.70418   0.31553   1.000
    N116    N    0.69599   0.30111   0.39382   1.000
    N117    N    0.55927   0.51024   0.52766   1.000
    N118    N    0.46962   0.60483   0.11434   1.000
    N119    N    0.55869   0.72740   0.11301   1.000
    N120    N    0.68924   0.58911   0.31396   1.000
    N121    N    0.48260   0.31814   0.51054   1.000
    N122    N    0.28116   0.51171   0.40433   1.000
    N123    N    0.96465   0.71859   0.61689   1.000
    N124    N    0.66203   0.99296   0.42260   1.000
    N125    N    0.60082   0.80145   0.51249   1.000
    N126    N    0.77931   0.61055   0.80581   1.000
    N127    N    0.67870   0.81360   0.81009   1.000
    N128    N    0.78902   0.69674   0.42050   1.000
    N129    N    0.56584   0.00559   0.61432   1.000
    N130    N    0.96013   0.62602   0.51787   1.000
    O131    O    0.67202   0.12603   0.50916   1.000
    O132    O    0.54426   0.13747   0.51496   1.000
    N133    N    0.77842   0.58349   0.53361   1.000
    N134    N    0.57088   0.80963   0.80581   1.000
    N135    N    0.97709   0.73288   0.39967   1.000
    N136    N    0.67993   0.00681   0.60881   1.000
    N137    N    0.48377   0.32645   0.39872   1.000
    N138    N    0.28234   0.50920   0.51278   1.000
    N139    N    0.65391   0.60364   0.12866   1.000
    N140    N    0.57136   0.69146   0.32157   1.000
    O141    O    0.56344   0.20163   0.54964   1.000
    O142    O    0.67107   0.68693   0.50369   1.000
    O143    O    0.66199   0.70196   0.84738   1.000
    O144    O    0.00659   0.70344   0.50626   1.000
    O145    O    0.64897   0.04338   0.50341   1.000
    N146    N    0.97280   0.60385   0.61114   1.000
    N147    N    0.54332   0.01581   0.53156   1.000
    N148    N    0.70528   0.78932   0.39220   1.000
    N149    N    0.77156   0.72267   0.81043   1.000
    N150    N    0.69248   0.59586   0.81537   1.000
    N151    N    0.57108   0.72241   0.60719   1.000
    N152    N    0.75434   0.01049   0.39382   1.000
    N153    N    0.97214   0.81314   0.53228   1.000
    N154    N    0.27453   0.60196   0.31392   1.000
    N155    N    0.57965   0.32220   0.48995   1.000
    N156    N    0.65591   0.51276   0.40918   1.000
    N157    N    0.47667   0.70439   0.12309   1.000
    N158    N    0.56652   0.52163   0.12262   1.000
    N159    N    0.47691   0.60733   0.50407   1.000
    N160    N    0.66522   0.31502   0.31520   1.000
    N161    N    0.27743   0.71705   0.40200   1.000
    O162    O    0.54737   0.20025   0.39863   1.000
    O163    O    0.71822   0.18536   0.38930   1.000
    Zr164   Zr   0.64294   0.22551   0.34136   1.000
    Zr165   Zr   0.65331   0.22428   0.47354   1.000
    Zr166   Zr   0.50930   0.23744   0.48062   1.000
    Zr167   Zr   0.59577   0.09273   0.57998   1.000
    Zr168   Zr   0.58310   0.09511   0.45014   1.000
    Zr169   Zr   0.72901   0.08181   0.43863   1.000
    H170    H    0.53732   0.22355   0.58141   1.000
    O171    O    0.80761   0.08586   0.45613   1.000
    O172    O    0.82373   0.06931   0.36642   1.000
    S173    S    0.85544   0.09065   0.38673   1.000
    O174    O    0.84766   0.15911   0.35078   1.000
    O175    O    0.91992   0.04585   0.38578   1.000
    O176    O    0.34848   0.32824   0.52153   1.000
    S177    S    0.37478   0.25731   0.54074   1.000
    O178    O    0.42522   0.23302   0.57209   1.000
    O179    O    0.42256   0.23806   0.47915   1.000
    O180    O    0.32938   0.22425   0.57870   1.000
    O181    O    0.75619   0.19121   0.47306   1.000
    H182    H    0.77906   0.21578   0.43125   1.000
    O183    O    0.58296   0.09671   0.66288   1.000
    H184    H    0.61841   0.08986   0.67283   1.000
    H185    H    0.78061   0.14387   0.47040   1.000
    O186    O    0.65722   0.22287   0.56348   1.000
    H187    H    0.70328   0.21415   0.55144   1.000
    O188    O    0.48718   0.12083   0.64219   1.000
    H189    H    0.45692   0.16129   0.62084   1.000
    O190    O    0.47627   0.12412   0.46383   1.000
    H191    H    0.46532   0.09315   0.50683   1.000
    O192    O    0.59243   0.08864   0.35715   1.000
    H193    H    0.62733   0.04373   0.37004   1.000
    H194    H    0.55854   0.08323   0.35491   1.000
    O195    O    0.71989   0.21711   0.26207   1.000
    O196    O    0.63137   0.19399   0.27639   1.000
    H197    H    0.62349   0.15280   0.29860   1.000
    H198    H    0.67751   0.18553   0.25051   1.000
    H199    H    0.44987   0.16792   0.47049   1.000
    H200    H    0.63253   0.26352   0.57266   1.000
    H201    H    0.75907   0.22316   0.25113   1.000
    H202    H    0.49041   0.12839   0.67430   1.000
    O203    O    0.12619   0.78997   0.59092   1.000
    H204    H    0.08722   0.61360   0.67753   1.000
    O205    O    0.07628   0.65732   0.64719   1.000
    S206    S    0.18413   0.75221   0.55344   1.000
    O207    O    0.24615   0.74690   0.54702   1.000
    H208    H    0.11549   0.67009   0.62445   1.000
    O209    O    0.18430   0.68295   0.57532   1.000
    O210    O    0.06060   0.56069   0.66564   1.000
    H211    H    0.18636   0.56541   0.58688   1.000
    Zr212   Zr   0.05465   0.63586   0.58345   1.000
    H213    H    0.06117   0.52055   0.66950   1.000
    O214    O    0.16525   0.59416   0.55468   1.000
    H215    H    0.21856   0.43539   0.59301   1.000
    O216    O    0.18225   0.46187   0.57694   1.000
    Zr217   Zr   0.19591   0.68308   0.48391   1.000
    O218    O    0.18153   0.77591   0.48471   1.000
    O219    O    0.09617   0.70903   0.51696   1.000
    H220    H    0.18035   0.43639   0.55925   1.000
    O221    O    0.09489   0.59205   0.51458   1.000
    O222    O    0.07492   0.84647   0.46108   1.000
    Zr223   Zr   0.19420   0.55078   0.48200   1.000
    H224    H    0.11823   0.82323   0.46935   1.000
    Zr225   Zr   0.05411   0.77463   0.45123   1.000
    H226    H    0.20464   0.46404   0.43924   1.000
    O227    O    0.17339   0.47483   0.47815   1.000
    H228    H    0.12798   0.49834   0.47102   1.000
    Zr229   Zr   0.05243   0.64452   0.44319   1.000
    O230    O    0.15930   0.75804   0.39986   1.000
    O231    O    0.06951   0.54000   0.45737   1.000
    O232    O    0.05090   0.86245   0.35477   1.000
    H233    H    0.18205   0.78813   0.37846   1.000
    O234    O    0.09221   0.71622   0.39886   1.000
    O235    O    0.15753   0.60255   0.39663   1.000
    H236    H    0.04221   0.90448   0.35487   1.000
    Zr237   Zr   0.19128   0.68759   0.34616   1.000
    O238    O    0.16464   0.79501   0.27782   1.000
    H239    H    0.12287   0.82298   0.29946   1.000
    H240    H    0.00824   0.85933   0.36486   1.000
    O241    O    0.04709   0.63039   0.36971   1.000
    H242    H    0.16764   0.57688   0.37118   1.000
    S243    S    0.07620   0.55613   0.38740   1.000
    O244    O    0.14558   0.53661   0.35054   1.000
    O245    O    0.03841   0.53156   0.38459   1.000
    H246    H    0.15599   0.78037   0.25427   1.000
    O247    O    0.17899   0.69875   0.26802   1.000
    H248    H    0.17530   0.66612   0.26217   1.000
    H249    H    0.04375   0.84907   0.50331   1.000
    O250    O    0.75797   0.38911   0.58602   1.000
    H251    H    0.58160   0.52986   0.68053   1.000
    O252    O    0.62349   0.52751   0.64671   1.000
    S253    S    0.71405   0.41058   0.55397   1.000
    O254    O    0.70290   0.36251   0.54992   1.000
    H255    H    0.63558   0.49568   0.62688   1.000
    O256    O    0.64767   0.45980   0.58046   1.000
    O257    O    0.52740   0.62418   0.66512   1.000
    H258    H    0.52878   0.57257   0.58988   1.000
    Zr259   Zr   0.60068   0.63478   0.58231   1.000
    H260    H    0.48840   0.65919   0.67720   1.000
    O261    O    0.55581   0.59784   0.55611   1.000
    H262    H    0.40218   0.66390   0.58193   1.000
    O263    O    0.42500   0.69111   0.57042   1.000
    Zr264   Zr   0.64335   0.54013   0.48880   1.000
    O265    O    0.73508   0.45822   0.48467   1.000
    O266    O    0.67287   0.58033   0.51867   1.000
    H267    H    0.39742   0.73650   0.55668   1.000
    O268    O    0.55885   0.70790   0.51154   1.000
    O269    O    0.80806   0.51206   0.46721   1.000
    Zr270   Zr   0.51631   0.68425   0.47962   1.000
    H271    H    0.78436   0.48641   0.47240   1.000
    Zr272   Zr   0.74027   0.61779   0.45294   1.000
    H273    H    0.43717   0.80920   0.43339   1.000
    O274    O    0.44330   0.78790   0.47506   1.000
    H275    H    0.46794   0.81343   0.47106   1.000
    Zr276   Zr   0.61445   0.76409   0.43934   1.000
    O277    O    0.72223   0.57858   0.40433   1.000
    O278    O    0.51193   0.84159   0.45556   1.000
    O279    O    0.82913   0.62450   0.35767   1.000
    H280    H    0.75294   0.54985   0.37893   1.000
    O281    O    0.68435   0.69170   0.39824   1.000
    O282    O    0.57160   0.74857   0.39263   1.000
    H283    H    0.87088   0.58969   0.35682   1.000
    Zr284   Zr   0.65655   0.67194   0.34697   1.000
    O285    O    0.76440   0.65812   0.28019   1.000
    H286    H    0.79192   0.65244   0.30060   1.000
    H287    H    0.82622   0.66031   0.36857   1.000
    O288    O    0.60143   0.85702   0.36538   1.000
    H289    H    0.54647   0.79059   0.36761   1.000
    S290    S    0.52719   0.88795   0.38545   1.000
    O291    O    0.50382   0.87694   0.35082   1.000
    O292    O    0.50541   0.95351   0.38250   1.000
    H293    H    0.75141   0.70341   0.25227   1.000
    O294    O    0.66527   0.74662   0.26573   1.000
    H295    H    0.63118   0.78578   0.25237   1.000
    H296    H    0.80862   0.49735   0.51045   1.000
    O297    O    0.75940   0.77142   0.93442   1.000
    H298    H    0.56785   0.87944   0.92610   1.000
    O299    O    0.61182   0.84885   0.91468   1.000
    S300    S    0.72413   0.75079   0.00228   1.000
    O301    O    0.73526   0.76264   0.04461   1.000
    H302    H    0.62836   0.82637   0.95178   1.000
    O303    O    0.65029   0.77680   0.01403   1.000
    O304    O    0.51862   0.86545   0.89542   1.000
    H305    H    0.52526   0.78946   0.02069   1.000
    Zr306   Zr   0.59492   0.78187   0.89304   1.000
    H307    H    0.48372   0.87376   0.88367   1.000
    O308    O    0.55240   0.75553   0.00128   1.000
    H309    H    0.40543   0.78012   0.06949   1.000
    O310    O    0.42187   0.77486   0.02801   1.000
    Zr311   Zr   0.64110   0.68533   0.03591   1.000
    O312    O    0.73550   0.67719   0.02407   1.000
    O313    O    0.66793   0.71388   0.93689   1.000
    H314    H    0.39289   0.76158   0.02644   1.000
    O315    O    0.55104   0.71335   0.93228   1.000
    O316    O    0.80668   0.65355   0.91597   1.000
    Zr317   Zr   0.51225   0.68037   0.03035   1.000
    H318    H    0.78586   0.65322   0.96201   1.000
    Zr319   Zr   0.73294   0.64603   0.89680   1.000
    H320    H    0.42941   0.63815   0.03581   1.000
    O321    O    0.43416   0.68025   0.00818   1.000
    H322    H    0.45760   0.67421   0.96267   1.000
    Zr323   Zr   0.60410   0.63958   0.89204   1.000
    O324    O    0.71719   0.59723   0.00147   1.000
    O325    O    0.50061   0.65433   0.90760   1.000
    O326    O    0.81934   0.54447   0.89889   1.000
    H327    H    0.74797   0.56858   0.02459   1.000
    O328    O    0.67687   0.59321   0.93242   1.000
    O329    O    0.56359   0.59401   0.99782   1.000
    H330    H    0.86082   0.54391   0.89157   1.000
    Zr331   Zr   0.64996   0.54382   0.03139   1.000
    O332    O    0.75558   0.47033   0.00490   1.000
    H333    H    0.78364   0.49025   0.96310   1.000
    H334    H    0.81439   0.55667   0.85551   1.000
    O335    O    0.59109   0.56287   0.89109   1.000
    H336    H    0.53757   0.56946   0.00690   1.000
    S337    S    0.51706   0.58225   0.91892   1.000
    O338    O    0.49785   0.54917   0.98879   1.000
    O339    O    0.49155   0.57594   0.88439   1.000
    H340    H    0.73936   0.44653   0.99873   1.000
    O341    O    0.65468   0.46380   0.02830   1.000
    H342    H    0.61899   0.45718   0.03130   1.000
    H343    H    0.80314   0.69934   0.89442   1.000
    H344    H    0.31724   0.69296   0.27515   1.000
    H345    H    0.29661   0.73500   0.41351   1.000
    H346    H    0.31498   0.62033   0.50036   1.000
    H347    H    0.31103   0.46180   0.51753   1.000
    H348    H    0.31488   0.46891   0.42022   1.000
    H349    H    0.29490   0.61461   0.26545   1.000
    H350    H    0.94735   0.86182   0.52153   1.000
    H351    H    0.93359   0.70295   0.66089   1.000
    H352    H    0.95522   0.58377   0.65937   1.000
    H353    H    0.93013   0.62721   0.50174   1.000
    H354    H    0.91894   0.85493   0.44053   1.000
    H355    H    0.96220   0.71917   0.37955   1.000
    H356    H    0.71310   0.59533   0.26635   1.000
    H357    H    0.64185   0.47466   0.42640   1.000
    H358    H    0.56885   0.46162   0.54850   1.000
    H359    H    0.44104   0.62587   0.48581   1.000
    H360    H    0.42647   0.73572   0.41118   1.000
    H361    H    0.58961   0.67926   0.28181   1.000
    H362    H    0.82714   0.56734   0.52357   1.000
    H363    H    0.66589   0.61606   0.65808   1.000
    H364    H    0.55001   0.71466   0.65518   1.000
    H365    H    0.60631   0.84448   0.49608   1.000
    H366    H    0.69279   0.83829   0.37099   1.000
    H367    H    0.82187   0.68165   0.44129   1.000
    H368    H    0.63992   0.62064   0.16404   1.000
    H369    H    0.70856   0.45963   0.13042   1.000
    H370    H    0.58516   0.47992   0.15491   1.000
    H371    H    0.42118   0.61440   0.13765   1.000
    H372    H    0.44302   0.68429   0.15943   1.000
    H373    H    0.56824   0.74799   0.13132   1.000
    H374    H    0.81773   0.70749   0.78103   1.000
    H375    H    0.66497   0.86260   0.78945   1.000
    H376    H    0.81525   0.62718   0.76924   1.000
    H377    H    0.67905   0.57846   0.79735   1.000
    H378    H    0.56623   0.70208   0.78141   1.000
    H379    H    0.56613   0.85661   0.77870   1.000
    H380    H    0.64677   0.95482   0.44343   1.000
    H381    H    0.80326   0.99421   0.37251   1.000
    H382    H    0.80415   0.95321   0.50089   1.000
    H383    H    0.67143   0.98986   0.65680   1.000
    H384    H    0.57282   0.97312   0.65675   1.000
    H385    H    0.53022   0.99146   0.52086   1.000
    H386    H    0.44148   0.36013   0.41570   1.000
    H387    H    0.57094   0.32704   0.25641   1.000
    H388    H    0.71174   0.32371   0.40376   1.000
    H389    H    0.65080   0.34997   0.27701   1.000
    H390    H    0.59939   0.35602   0.47301   1.000
    H391    H    0.43371   0.33968   0.52804   1.000
