# CIF file generated by openbabel 3.0.0, see http://openbabel.sf.net
data_I
_chemical_name_common 'D:\! BYU CALCULATION\Acidic MOF Patent\Periodic_53_00\UiO67_based_cell-pos-final.pdb'
_cell_length_a 27.059
_cell_length_b 27.278
_cell_length_c 27.187
_cell_angle_alpha 89.36
_cell_angle_beta 89.99
_cell_angle_gamma 90.05
loop_
    _atom_site_label
    _atom_site_type_symbol
    _atom_site_fract_x
    _atom_site_fract_y
    _atom_site_fract_z
    _atom_site_occupancy
    C0      C    0.30508   0.39309   0.48835   1.000
    C1      C    0.71407   0.68170   0.48960   1.000
    C2      C    0.71440   0.39093   0.52396   1.000
    C3      C    0.30695   0.68183   0.52738   1.000
    C4      C    0.86627   0.51830   0.80293   1.000
    C5      C    0.15741   0.51586   0.20894   1.000
    C6      C    0.86622   0.55251   0.20967   1.000
    C7      C    0.15741   0.55664   0.80341   1.000
    C8      C    0.30801   0.89027   0.98851   1.000
    C9      C    0.71738   0.18058   0.98513   1.000
    C10     C    0.71792   0.89005   0.02667   1.000
    C11     C    0.30778   0.18017   0.02755   1.000
    C12     C    0.86515   0.01811   0.30322   1.000
    C13     C    0.15710   0.01824   0.70924   1.000
    C14     C    0.86577   0.05644   0.70957   1.000
    C15     C    0.15706   0.05286   0.30329   1.000
    C16     C    0.80741   0.39027   0.98866   1.000
    C17     C    0.21743   0.68069   0.98513   1.000
    C18     C    0.21760   0.38961   0.02751   1.000
    C19     C    0.80761   0.68028   0.02376   1.000
    C20     C    0.36764   0.51811   0.30266   1.000
    C21     C    0.65668   0.51817   0.70928   1.000
    C22     C    0.36712   0.55582   0.70950   1.000
    C23     C    0.65659   0.55260   0.30336   1.000
    C24     C    0.80668   0.89176   0.48559   1.000
    C25     C    0.21394   0.18210   0.48960   1.000
    C26     C    0.21526   0.89100   0.52418   1.000
    C27     C    0.80686   0.18193   0.52753   1.000
    C28     C    0.36733   0.01831   0.80231   1.000
    C29     C    0.65687   0.01263   0.20927   1.000
    C30     C    0.36735   0.05254   0.21015   1.000
    C31     C    0.65703   0.05664   0.80326   1.000
    C32     C    0.26968   0.35589   0.48442   1.000
    C33     C    0.74969   0.71870   0.48548   1.000
    C34     C    0.75084   0.35493   0.52797   1.000
    C35     C    0.27139   0.71879   0.53010   1.000
    C36     C    0.82999   0.51574   0.76652   1.000
    C37     C    0.19421   0.51406   0.24487   1.000
    C38     C    0.83000   0.55493   0.24616   1.000
    C39     C    0.19427   0.55895   0.76758   1.000
    C40     C    0.27195   0.85387   0.98535   1.000
    C41     C    0.75274   0.21786   0.98222   1.000
    C42     C    0.75321   0.85281   0.02976   1.000
    C43     C    0.27192   0.21665   0.03060   1.000
    C44     C    0.82919   0.01492   0.26680   1.000
    C45     C    0.19427   0.01576   0.74492   1.000
    C46     C    0.82985   0.05882   0.74618   1.000
    C47     C    0.19417   0.05527   0.26753   1.000
    C48     C    0.77149   0.35372   0.98539   1.000
    C49     C    0.25287   0.71793   0.98226   1.000
    C50     C    0.25320   0.35254   0.03057   1.000
    C51     C    0.77172   0.71676   0.02700   1.000
    C52     C    0.33168   0.51500   0.26595   1.000
    C53     C    0.69381   0.51554   0.74496   1.000
    C54     C    0.33138   0.55683   0.74651   1.000
    C55     C    0.69382   0.55516   0.26772   1.000
    C56     C    0.77043   0.85539   0.48258   1.000
    C57     C    0.24956   0.21906   0.48545   1.000
    C58     C    0.25141   0.85468   0.52723   1.000
    C59     C    0.77127   0.21889   0.53025   1.000
    C60     C    0.33064   0.01589   0.76619   1.000
    C61     C    0.69353   0.01135   0.24517   1.000
    C62     C    0.33065   0.05511   0.24624   1.000
    C63     C    0.69385   0.05906   0.76747   1.000
    C64     C    0.39353   0.42061   0.50207   1.000
    C65     C    0.62579   0.65346   0.50318   1.000
    C66     C    0.62602   0.41859   0.50943   1.000
    C67     C    0.39437   0.65319   0.51116   1.000
    C68     C    0.89429   0.53408   0.89059   1.000
    C69     C    0.12942   0.52751   0.12065   1.000
    C70     C    0.89435   0.53670   0.12194   1.000
    C71     C    0.12930   0.54356   0.89177   1.000
    C72     C    0.39609   0.91954   0.00287   1.000
    C73     C    0.62990   0.15047   0.00129   1.000
    C74     C    0.63051   0.92026   0.01045   1.000
    C75     C    0.39516   0.15095   0.01144   1.000
    C76     C    0.89190   0.03149   0.39161   1.000
    C77     C    0.12879   0.03495   0.62151   1.000
    C78     C    0.89346   0.04202   0.62140   1.000
    C79     C    0.12868   0.03894   0.39117   1.000
    C80     C    0.89504   0.41943   0.00298   1.000
    C81     C    0.12993   0.65067   0.00124   1.000
    C82     C    0.12964   0.41896   0.01177   1.000
    C83     C    0.89517   0.65126   0.00964   1.000
    C84     C    0.39365   0.53010   0.39131   1.000
    C85     C    0.62825   0.53410   0.62140   1.000
    C86     C    0.39399   0.54224   0.62133   1.000
    C87     C    0.62726   0.53715   0.39084   1.000
    C88     C    0.89440   0.91985   0.50141   1.000
    C89     C    0.12592   0.15390   0.50325   1.000
    C90     C    0.12729   0.91965   0.50991   1.000
    C91     C    0.89439   0.15336   0.51245   1.000
    C92     C    0.39505   0.03523   0.88952   1.000
    C93     C    0.62929   0.02714   0.12098   1.000
    C94     C    0.39511   0.03547   0.12290   1.000
    C95     C    0.62895   0.04378   0.89144   1.000
    C96     C    0.35436   0.38221   0.50075   1.000
    C97     C    0.66474   0.69245   0.50159   1.000
    C98     C    0.66535   0.38019   0.51086   1.000
    C99     C    0.35604   0.69242   0.51388   1.000
    C100    C    0.85534   0.53154   0.85171   1.000
    C101    C    0.16833   0.52733   0.15957   1.000
    C102    C    0.85536   0.53927   0.16086   1.000
    C103    C    0.16811   0.54429   0.85270   1.000
    C104    C    0.35748   0.88011   0.00092   1.000
    C105    C    0.66827   0.18996   0.99870   1.000
    C106    C    0.66913   0.88091   0.01144   1.000
    C107    C    0.35690   0.19025   0.01409   1.000
    C108    C    0.85362   0.03076   0.35192   1.000
    C109    C    0.16799   0.03166   0.66025   1.000
    C110    C    0.85498   0.04342   0.66080   1.000
    C111    C    0.16798   0.04043   0.35251   1.000
    C112    C    0.85683   0.38004   0.00121   1.000
    C113    C    0.16825   0.69018   0.99866   1.000
    C114    C    0.16845   0.37979   0.01368   1.000
    C115    C    0.85692   0.69051   0.01118   1.000
    C116    C    0.35589   0.53014   0.35155   1.000
    C117    C    0.66745   0.53151   0.66021   1.000
    C118    C    0.35562   0.54357   0.66069   1.000
    C119    C    0.66710   0.53970   0.35258   1.000
    C120    C    0.85574   0.88084   0.49909   1.000
    C121    C    0.16472   0.19292   0.50189   1.000
    C122    C    0.16588   0.88055   0.51189   1.000
    C123    C    0.85599   0.19257   0.51429   1.000
    C124    C    0.35610   0.03162   0.85090   1.000
    C125    C    0.66754   0.02652   0.16038   1.000
    C126    C    0.35615   0.03919   0.16156   1.000
    C127    C    0.66773   0.04425   0.85248   1.000
    C128    C    0.27913   0.30647   0.49766   1.000
    C129    C    0.74008   0.76805   0.49759   1.000
    C130    C    0.74222   0.30603   0.51425   1.000
    C131    C    0.28112   0.76767   0.51524   1.000
    C132    C    0.78096   0.53089   0.77472   1.000
    C133    C    0.24363   0.52730   0.23502   1.000
    C134    C    0.78091   0.53965   0.23811   1.000
    C135    C    0.24337   0.54414   0.77729   1.000
    C136    C    0.28162   0.80460   0.99800   1.000
    C137    C    0.74284   0.26586   0.99774   1.000
    C138    C    0.74338   0.80467   0.01424   1.000
    C139    C    0.28162   0.26546   0.01596   1.000
    C140    C    0.77979   0.02828   0.27522   1.000
    C141    C    0.24340   0.03096   0.73558   1.000
    C142    C    0.78083   0.04362   0.73797   1.000
    C143    C    0.24327   0.04047   0.27710   1.000
    C144    C    0.78127   0.30449   0.99800   1.000
    C145    C    0.24308   0.76604   0.99778   1.000
    C146    C    0.24344   0.30402   0.01633   1.000
    C147    C    0.78156   0.76585   0.01379   1.000
    C148    C    0.28188   0.52826   0.27405   1.000
    C149    C    0.74297   0.53041   0.73554   1.000
    C150    C    0.28173   0.54318   0.73834   1.000
    C151    C    0.74280   0.54024   0.27732   1.000
    C152    C    0.77900   0.80633   0.49747   1.000
    C153    C    0.24007   0.26842   0.49759   1.000
    C154    C    0.24242   0.80581   0.51414   1.000
    C155    C    0.78099   0.26785   0.51554   1.000
    C156    C    0.28154   0.03111   0.77476   1.000
    C157    C    0.74243   0.02681   0.23579   1.000
    C158    C    0.28149   0.03988   0.23789   1.000
    C159    C    0.74287   0.04417   0.77718   1.000
    C160    C    0.30612   0.54141   0.36053   1.000
    C161    C    0.30606   0.53080   0.65182   1.000
    C162    C    0.71676   0.52858   0.36358   1.000
    C163    C    0.71691   0.54354   0.64995   1.000
    C164    C    0.86523   0.83132   0.51112   1.000
    C165    C    0.15616   0.83107   0.50090   1.000
    C166    C    0.86653   0.24171   0.50218   1.000
    C167    C    0.15467   0.24211   0.51270   1.000
    C168    C    0.30670   0.04405   0.86054   1.000
    C169    C    0.30670   0.02676   0.15203   1.000
    C170    C    0.71720   0.03266   0.86344   1.000
    C171    C    0.71674   0.03942   0.15030   1.000
    C172    C    0.86765   0.33036   0.01115   1.000
    C173    C    0.15813   0.33084   0.00121   1.000
    C174    C    0.86783   0.73997   0.00048   1.000
    C175    C    0.15731   0.73905   0.01096   1.000
    C176    C    0.80575   0.54401   0.86083   1.000
    C177    C    0.80575   0.52676   0.15185   1.000
    C178    C    0.21758   0.53273   0.86363   1.000
    C179    C    0.21775   0.53937   0.14876   1.000
    C180    C    0.36822   0.83036   0.01100   1.000
    C181    C    0.65833   0.83226   0.99842   1.000
    C182    C    0.36763   0.23958   0.00210   1.000
    C183    C    0.65707   0.23893   0.01104   1.000
    C184    C    0.80392   0.04254   0.36089   1.000
    C185    C    0.80549   0.03065   0.65175   1.000
    C186    C    0.21752   0.02909   0.36343   1.000
    C187    C    0.21745   0.04394   0.64998   1.000
    C188    C    0.36489   0.33275   0.51105   1.000
    C189    C    0.65599   0.33086   0.49968   1.000
    C190    C    0.36673   0.74157   0.50204   1.000
    C191    C    0.65458   0.74183   0.51149   1.000
    C192    C    0.27127   0.54319   0.32260   1.000
    C193    C    0.27123   0.52839   0.68978   1.000
    C194    C    0.75276   0.52679   0.32665   1.000
    C195    C    0.75305   0.54427   0.68655   1.000
    C196    C    0.82762   0.79629   0.51311   1.000
    C197    C    0.19360   0.79593   0.49909   1.000
    C198    C    0.83008   0.27780   0.50152   1.000
    C199    C    0.19092   0.27831   0.51153   1.000
    C200    C    0.27130   0.04634   0.82313   1.000
    C201    C    0.27128   0.02458   0.18944   1.000
    C202    C    0.75301   0.03076   0.82644   1.000
    C203    C    0.75284   0.04044   0.18687   1.000
    C204    C    0.83081   0.29443   0.01140   1.000
    C205    C    0.19458   0.29476   0.00162   1.000
    C206    C    0.83072   0.77547   0.99890   1.000
    C207    C    0.19407   0.77498   0.01313   1.000
    C208    C    0.77069   0.54616   0.82309   1.000
    C209    C    0.77071   0.52450   0.18962   1.000
    C210    C    0.25332   0.53076   0.82659   1.000
    C211    C    0.25363   0.54046   0.18573   1.000
    C212    C    0.33116   0.79447   0.01133   1.000
    C213    C    0.69463   0.79597   0.99816   1.000
    C214    C    0.33056   0.27509   0.00066   1.000
    C215    C    0.69387   0.27476   0.01321   1.000
    C216    C    0.76864   0.04362   0.32337   1.000
    C217    C    0.77055   0.02836   0.68960   1.000
    C218    C    0.25330   0.02698   0.32643   1.000
    C219    C    0.25337   0.04591   0.68673   1.000
    C220    C    0.32842   0.29664   0.51156   1.000
    C221    C    0.69362   0.29594   0.49850   1.000
    C222    C    0.33025   0.77761   0.50134   1.000
    C223    C    0.69098   0.77798   0.51123   1.000
    F224    F    0.29026   0.43856   0.47695   1.000
    F225    F    0.72796   0.63583   0.48063   1.000
    F226    F    0.72755   0.43618   0.53595   1.000
    F227    F    0.29345   0.63619   0.53985   1.000
    F228    F    0.91180   0.50584   0.78954   1.000
    F229    F    0.91176   0.56504   0.22299   1.000
    F230    F    0.11149   0.56900   0.78936   1.000
    F231    F    0.29368   0.93568   0.97685   1.000
    F232    F    0.73154   0.13548   0.97273   1.000
    F233    F    0.73159   0.93511   0.03998   1.000
    F234    F    0.29366   0.13490   0.03998   1.000
    F235    F    0.91096   0.00587   0.28964   1.000
    F236    F    0.11141   0.00595   0.72300   1.000
    F237    F    0.91153   0.06934   0.72296   1.000
    F238    F    0.11136   0.06475   0.28938   1.000
    F239    F    0.79340   0.43564   0.97685   1.000
    F240    F    0.23144   0.63563   0.97258   1.000
    F241    F    0.23143   0.43489   0.03991   1.000
    F242    F    0.79349   0.63495   0.03568   1.000
    F243    F    0.41386   0.50602   0.28953   1.000
    F244    F    0.61098   0.50595   0.72307   1.000
    F245    F    0.41303   0.56894   0.72282   1.000
    F246    F    0.61096   0.56478   0.28942   1.000
    F247    F    0.79356   0.93726   0.47265   1.000
    F248    F    0.22791   0.13623   0.48052   1.000
    F249    F    0.23060   0.93586   0.53566   1.000
    F250    F    0.79337   0.13630   0.53989   1.000
    F251    F    0.41322   0.00591   0.78932   1.000
    F252    F    0.61147   0.99730   0.22295   1.000
    F253    F    0.41330   0.06482   0.22317   1.000
    F254    F    0.61099   0.06908   0.78925   1.000
    F255    F    0.22634   0.36868   0.46452   1.000
    F256    F    0.79410   0.70583   0.46845   1.000
    F257    F    0.79390   0.36853   0.54783   1.000
    F258    F    0.22699   0.70634   0.54809   1.000
    F259    F    0.84362   0.49767   0.72300   1.000
    F260    F    0.84368   0.57317   0.28961   1.000
    F261    F    0.18150   0.57693   0.72318   1.000
    F262    F    0.22747   0.86809   0.96861   1.000
    F263    F    0.79723   0.20615   0.96409   1.000
    F264    F    0.79764   0.86445   0.04815   1.000
    F265    F    0.22764   0.20278   0.04819   1.000
    F266    F    0.84356   0.99740   0.22325   1.000
    F267    F    0.18150   0.99785   0.78929   1.000
    F268    F    0.84353   0.07725   0.78951   1.000
    F269    F    0.18144   0.07289   0.22310   1.000
    F270    F    0.72719   0.36806   0.96854   1.000
    F271    F    0.29729   0.70618   0.96409   1.000
    F272    F    0.29777   0.36463   0.04815   1.000
    F273    F    0.72739   0.70260   0.04403   1.000
    F274    F    0.34709   0.49759   0.22273   1.000
    F275    F    0.68126   0.49777   0.78940   1.000
    F276    F    0.34687   0.57336   0.78999   1.000
    F277    F    0.68138   0.57292   0.22325   1.000
    F278    F    0.72665   0.86872   0.46411   1.000
    F279    F    0.29390   0.20598   0.46830   1.000
    F280    F    0.29525   0.86867   0.54463   1.000
    F281    F    0.72690   0.20630   0.54813   1.000
    F282    F    0.34364   0.99771   0.72256   1.000
    F283    F    0.68116   0.99344   0.28957   1.000
    F284    F    0.34382   0.07325   0.28983   1.000
    F285    F    0.68130   0.07704   0.72307   1.000
    F286    F    0.28986   0.55238   0.40548   1.000
    F287    F    0.29009   0.51857   0.60706   1.000
    F288    F    0.73131   0.51821   0.40952   1.000
    F289    F    0.73142   0.55665   0.60485   1.000
    F290    F    0.91042   0.81531   0.52315   1.000
    F291    F    0.11065   0.81514   0.48916   1.000
    F292    F    0.91185   0.25619   0.48931   1.000
    F293    F    0.10986   0.25631   0.52786   1.000
    F294    F    0.29284   0.05664   0.90578   1.000
    F295    F    0.29284   0.01410   0.10679   1.000
    F296    F    0.73152   0.02239   0.90928   1.000
    F297    F    0.73136   0.05246   0.10539   1.000
    F298    F    0.91339   0.31498   0.02317   1.000
    F299    F    0.11375   0.31585   0.98561   1.000
    F300    F    0.91353   0.75561   0.98914   1.000
    F301    F    0.11142   0.75236   0.02332   1.000
    F302    F    0.78998   0.55649   0.90567   1.000
    F303    F    0.78997   0.51432   0.10697   1.000
    F304    F    0.23176   0.52236   0.90950   1.000
    F305    F    0.23167   0.55215   0.10333   1.000
    F306    F    0.41363   0.81505   0.02303   1.000
    F307    F    0.61302   0.81872   0.98487   1.000
    F308    F    0.41259   0.25503   0.98925   1.000
    F309    F    0.61129   0.25225   0.02336   1.000
    F310    F    0.78888   0.05336   0.40614   1.000
    F311    F    0.78978   0.01846   0.60695   1.000
    F312    F    0.23177   0.01828   0.40934   1.000
    F313    F    0.23170   0.05669   0.60474   1.000
    F314    F    0.41051   0.31847   0.52315   1.000
    F315    F    0.61056   0.31467   0.48857   1.000
    F316    F    0.41205   0.75619   0.48927   1.000
    F317    F    0.60935   0.75642   0.52470   1.000
    F318    F    0.22683   0.56057   0.33492   1.000
    F319    F    0.22687   0.51038   0.67768   1.000
    F320    F    0.79761   0.51019   0.33956   1.000
    F321    F    0.79785   0.56062   0.67316   1.000
    F322    F    0.83951   0.75209   0.53143   1.000
    F323    F    0.18140   0.75199   0.48125   1.000
    F324    F    0.84339   0.32248   0.48519   1.000
    F325    F    0.17747   0.32271   0.52731   1.000
    F326    F    0.22701   0.06457   0.83508   1.000
    F327    F    0.22703   0.00620   0.17745   1.000
    F328    F    0.79775   0.01430   0.83946   1.000
    F329    F    0.79746   0.05676   0.17326   1.000
    F330    F    0.84382   0.24957   0.02737   1.000
    F331    F    0.18128   0.25082   0.98480   1.000
    F332    F    0.84348   0.81949   0.98119   1.000
    F333    F    0.18136   0.81855   0.03145   1.000
    F334    F    0.72654   0.56465   0.83501   1.000
    F335    F    0.72653   0.50613   0.17752   1.000
    F336    F    0.29799   0.51415   0.83961   1.000
    F337    F    0.29840   0.55677   0.17281   1.000
    F338    F    0.34394   0.74960   0.02737   1.000
    F339    F    0.68137   0.75208   0.98090   1.000
    F340    F    0.34314   0.31879   0.98152   1.000
    F341    F    0.68130   0.31844   0.03141   1.000
    F342    F    0.72356   0.06039   0.33507   1.000
    F343    F    0.72630   0.01020   0.67754   1.000
    F344    F    0.29800   0.01015   0.33948   1.000
    F345    F    0.29758   0.06435   0.67360   1.000
    F346    F    0.34286   0.25221   0.52745   1.000
    F347    F    0.68150   0.25181   0.48111   1.000
    F348    F    0.34359   0.82226   0.48497   1.000
    F349    F    0.67756   0.82242   0.52709   1.000
    H350    H    0.93681   0.60813   0.93311   1.000
    H351    H    0.08125   0.46233   0.93069   1.000
    H352    H    0.08186   0.60793   0.08166   1.000
    H353    H    0.93653   0.46290   0.07934   1.000
    H354    H    0.44193   0.46136   0.58311   1.000
    H355    H    0.44054   0.60973   0.43045   1.000
    H356    H    0.58438   0.60775   0.57903   1.000
    H357    H    0.58413   0.46306   0.43351   1.000
    H358    H    0.08392   0.96343   0.43336   1.000
    H359    H    0.94165   0.96137   0.58186   1.000
    H360    H    0.08388   0.10855   0.57939   1.000
    H361    H    0.94093   0.11171   0.43075   1.000
    H362    H    0.43924   0.96068   0.07780   1.000
    H363    H    0.43624   0.10932   0.93503   1.000
    H364    H    0.58196   0.10812   0.08144   1.000
    H365    H    0.58215   0.96255   0.93036   1.000
    O366    O    0.38005   0.46452   0.50649   1.000
    O367    O    0.63964   0.60912   0.50237   1.000
    O368    O    0.63959   0.46320   0.51009   1.000
    O369    O    0.38054   0.60951   0.50641   1.000
    O370    O    0.00987   0.89333   0.44009   1.000
    O371    O    0.00697   0.18110   0.57274   1.000
    O372    O    0.01415   0.16771   0.43546   1.000
    O373    O    0.01422   0.90615   0.57667   1.000
    O374    O    0.93886   0.53563   0.87643   1.000
    O375    O    0.08462   0.52350   0.13515   1.000
    O376    O    0.93895   0.53525   0.13614   1.000
    O377    O    0.08455   0.54717   0.87731   1.000
    O378    O    0.38131   0.96415   0.00346   1.000
    O379    O    0.64406   0.10643   0.00603   1.000
    O380    O    0.64429   0.96437   0.00644   1.000
    O381    O    0.38074   0.10639   0.00964   1.000
    O382    O    0.00755   0.40637   0.93554   1.000
    O383    O    0.01014   0.66474   0.07677   1.000
    O384    O    0.01514   0.68119   0.93992   1.000
    O385    O    0.01463   0.38958   0.07247   1.000
    O386    O    0.93669   0.02806   0.37741   1.000
    O387    O    0.08429   0.03526   0.63571   1.000
    O388    O    0.93847   0.04374   0.63542   1.000
    O389    O    0.08427   0.03939   0.37697   1.000
    O390    O    0.88089   0.46383   0.00254   1.000
    O391    O    0.14392   0.60687   0.00636   1.000
    O392    O    0.14343   0.46310   0.00813   1.000
    O393    O    0.88094   0.60686   0.01001   1.000
    O394    O    0.51030   0.90622   0.93558   1.000
    O395    O    0.51024   0.16466   0.07714   1.000
    O396    O    0.51405   0.17676   0.93944   1.000
    O397    O    0.51487   0.89434   0.07651   1.000
    O398    O    0.43866   0.52740   0.37734   1.000
    O399    O    0.58379   0.53560   0.63567   1.000
    O400    O    0.43893   0.54362   0.63560   1.000
    O401    O    0.58280   0.53544   0.37634   1.000
    O402    O    0.88061   0.96383   0.50608   1.000
    O403    O    0.14000   0.10963   0.50229   1.000
    O404    O    0.14252   0.96393   0.51028   1.000
    O405    O    0.88071   0.10951   0.50943   1.000
    O406    O    0.50657   0.38967   0.43998   1.000
    O407    O    0.50702   0.68106   0.57270   1.000
    O408    O    0.51435   0.66507   0.43546   1.000
    O409    O    0.51484   0.40567   0.57656   1.000
    O410    O    0.43937   0.03969   0.87393   1.000
    O411    O    0.58431   0.02320   0.13522   1.000
    O412    O    0.43941   0.03116   0.13853   1.000
    O413    O    0.58398   0.04775   0.87724   1.000
    O414    O    0.01031   0.47166   0.87305   1.000
    O415    O    0.01409   0.60640   0.86517   1.000
    O416    O    0.01409   0.46438   0.14729   1.000
    O417    O    0.01059   0.59989   0.13941   1.000
    O418    O    0.37864   0.53163   0.43549   1.000
    O419    O    0.37969   0.53966   0.57708   1.000
    O420    O    0.64103   0.53562   0.43582   1.000
    O421    O    0.64282   0.53537   0.57660   1.000
    O422    O    0.93955   0.90596   0.49792   1.000
    O423    O    0.08246   0.90590   0.50649   1.000
    O424    O    0.93956   0.16815   0.51436   1.000
    O425    O    0.08125   0.16857   0.50619   1.000
    O426    O    0.00703   0.96862   0.36836   1.000
    O427    O    0.01089   0.10352   0.37303   1.000
    O428    O    0.01087   0.96902   0.63950   1.000
    O429    O    0.00696   0.10601   0.64664   1.000
    O430    O    0.38133   0.03495   0.93429   1.000
    O431    O    0.38144   0.03550   0.07813   1.000
    O432    O    0.64317   0.03966   0.93554   1.000
    O433    O    0.64353   0.03129   0.07695   1.000
    O434    O    0.93978   0.40520   0.00614   1.000
    O435    O    0.08454   0.40390   0.01453   1.000
    O436    O    0.93990   0.66555   0.00658   1.000
    O437    O    0.08471   0.66475   0.99763   1.000
    O438    O    0.50694   0.46477   0.36553   1.000
    O439    O    0.51094   0.60198   0.37289   1.000
    O440    O    0.51399   0.46880   0.63939   1.000
    O441    O    0.50724   0.60615   0.64686   1.000
    O442    O    0.88005   0.53537   0.93543   1.000
    O443    O    0.88013   0.53529   0.07717   1.000
    O444    O    0.14333   0.53962   0.93609   1.000
    O445    O    0.14344   0.53123   0.07636   1.000
    O446    O    0.44065   0.90580   0.00530   1.000
    O447    O    0.58555   0.90588   0.01431   1.000
    O448    O    0.43974   0.16507   0.01037   1.000
    O449    O    0.58491   0.16463   0.99811   1.000
    O450    O    0.51059   0.97144   0.87312   1.000
    O451    O    0.51460   0.10582   0.86065   1.000
    O452    O    0.51448   0.96876   0.15578   1.000
    O453    O    0.51047   0.09926   0.13941   1.000
    O454    O    0.87756   0.03514   0.43586   1.000
    O455    O    0.87875   0.03933   0.57719   1.000
    O456    O    0.14335   0.03577   0.43590   1.000
    O457    O    0.14343   0.03856   0.57682   1.000
    O458    O    0.43853   0.40607   0.49810   1.000
    O459    O    0.58159   0.40305   0.50627   1.000
    O460    O    0.43950   0.66790   0.51421   1.000
    O461    O    0.58119   0.66835   0.50623   1.000
    O462    O    0.95964   0.98606   0.55729   1.000
    O463    O    0.06015   0.09018   0.55990   1.000
    O464    O    0.06051   0.98235   0.45263   1.000
    O465    O    0.95872   0.08798   0.45506   1.000
    O466    O    0.06371   0.48541   0.95507   1.000
    O467    O    0.06374   0.58503   0.05746   1.000
    O468    O    0.96092   0.58984   0.95257   1.000
    O469    O    0.96098   0.48097   0.06003   1.000
    O470    O    0.45795   0.58593   0.45462   1.000
    O471    O    0.56012   0.58982   0.55975   1.000
    O472    O    0.45914   0.48520   0.55876   1.000
    O473    O    0.55975   0.48096   0.45263   1.000
    O474    O    0.46090   0.09002   0.95276   1.000
    O475    O    0.56383   0.08514   0.05738   1.000
    O476    O    0.46347   0.98067   0.06014   1.000
    O477    O    0.56428   0.98552   0.95489   1.000
    O478    O    0.05091   0.07324   0.46856   1.000
    O479    O    0.97271   0.99802   0.46801   1.000
    O480    O    0.97270   0.07587   0.54438   1.000
    O481    O    0.05175   0.99877   0.54482   1.000
    O482    O    0.97222   0.57253   0.04422   1.000
    O483    O    0.97214   0.49835   0.96843   1.000
    O484    O    0.04847   0.49489   0.04436   1.000
    O485    O    0.04853   0.57570   0.96821   1.000
    O486    O    0.54937   0.49830   0.54415   1.000
    O487    O    0.47266   0.49684   0.46871   1.000
    O488    O    0.54904   0.57262   0.46823   1.000
    O489    O    0.47245   0.57565   0.54445   1.000
    O490    O    0.54989   0.99580   0.04462   1.000
    O491    O    0.47264   0.99809   0.96835   1.000
    O492    O    0.54825   0.07482   0.96817   1.000
    O493    O    0.47221   0.07231   0.04444   1.000
    Zr494   Zr   0.01099   0.53539   0.09796   1.000
    Zr495   Zr   0.01092   0.53557   0.91472   1.000
    Zr496   Zr   0.60229   0.53561   0.50634   1.000
    Zr497   Zr   0.41950   0.53575   0.50638   1.000
    Zr498   Zr   0.01078   0.12697   0.50215   1.000
    Zr499   Zr   0.01098   0.94758   0.51017   1.000
    Zr500   Zr   0.01064   0.03521   0.59771   1.000
    Zr501   Zr   0.01057   0.03938   0.41464   1.000
    Zr502   Zr   0.60212   0.03545   0.00614   1.000
    Zr503   Zr   0.41919   0.03523   0.00614   1.000
    Zr504   Zr   0.01097   0.62647   0.01045   1.000
    Zr505   Zr   0.01096   0.44414   0.00232   1.000
    Zr506   Zr   0.51051   0.53528   0.59786   1.000
    Zr507   Zr   0.51025   0.53593   0.41453   1.000
    Zr508   Zr   0.10169   0.53542   0.00618   1.000
    Zr509   Zr   0.91898   0.53545   0.00618   1.000
    Zr510   Zr   0.51110   0.12713   0.01019   1.000
    Zr511   Zr   0.51382   0.94381   0.00283   1.000
    Zr512   Zr   0.51127   0.03546   0.09759   1.000
    Zr513   Zr   0.51072   0.03512   0.91527   1.000
    Zr514   Zr   0.10519   0.03568   0.50634   1.000
    Zr515   Zr   0.91953   0.03575   0.50641   1.000
    Zr516   Zr   0.51046   0.62664   0.50200   1.000
    Zr517   Zr   0.51056   0.44428   0.51035   1.000
    H518    H    0.04751   0.37676   0.06198   1.000
    H519    H    0.04867   0.69233   0.95059   1.000
    H520    H    0.54730   0.09641   0.84689   1.000
    H521    H    0.54780   0.18988   0.94338   1.000
    H522    H    0.51478   0.15620   0.90972   1.000
    H523    H    0.54697   0.97805   0.17006   1.000
    H524    H    0.54801   0.87989   0.07390   1.000
    H525    H    0.51574   0.91550   0.10576   1.000
    H526    H    0.97789   0.87816   0.44999   1.000
    H527    H    0.97407   0.97140   0.35328   1.000
    H528    H    0.00660   0.93913   0.39006   1.000
    H529    H    0.97457   0.19425   0.56100   1.000
    H530    H    0.97425   0.10231   0.66209   1.000
    H531    H    0.00522   0.13539   0.62482   1.000
    H532    H    0.47468   0.46825   0.34923   1.000
    H533    H    0.47403   0.37646   0.45083   1.000
    H534    H    0.50495   0.43524   0.38705   1.000
    H535    H    0.47497   0.60256   0.66315   1.000
    H536    H    0.47477   0.69461   0.56108   1.000
    H537    H    0.50512   0.63557   0.62523   1.000
    H538    H    0.01562   0.43547   0.12566   1.000
    H539    H    0.01622   0.63537   0.88673   1.000
    H540    H    0.04747   0.46829   0.16130   1.000
    H541    H    0.04713   0.60234   0.85046   1.000
    S542    S    0.02941   0.41908   0.88390   1.000
    S543    S    0.03137   0.65177   0.12849   1.000
    O544    O    0.08400   0.42282   0.88978   1.000
    O545    O    0.01109   0.38549   0.84807   1.000
    O546    O    0.01447   0.68579   0.16461   1.000
    O547    O    0.08577   0.64733   0.12249   1.000
    H548    H    0.99026   0.36319   0.06901   1.000
    H549    H    0.99248   0.70906   0.94268   1.000
    S550    S    0.49451   0.41667   0.62883   1.000
    S551    S    0.49232   0.65432   0.38377   1.000
    O552    O    0.51032   0.68917   0.34813   1.000
    O553    O    0.43781   0.65150   0.38995   1.000
    O554    O    0.51362   0.38175   0.66400   1.000
    O555    O    0.43982   0.41941   0.62331   1.000
    H556    H    0.53127   0.36356   0.44395   1.000
    H557    H    0.53232   0.70659   0.56840   1.000
    S558    S    0.99212   0.15604   0.38418   1.000
    S559    S    0.99098   0.91739   0.62736   1.000
    O560    O    0.93765   0.15205   0.39006   1.000
    O561    O    0.01016   0.19002   0.34772   1.000
    O562    O    0.93640   0.92276   0.61901   1.000
    O563    O    0.00572   0.88179   0.66385   1.000
    H564    H    0.03594   0.86868   0.44509   1.000
    H565    H    0.03190   0.20703   0.56873   1.000
    S566    S    0.53123   0.91919   0.88408   1.000
    S567    S    0.53136   0.15155   0.12849   1.000
    O568    O    0.51440   0.88524   0.84781   1.000
    O569    O    0.58571   0.92378   0.88975   1.000
    O570    O    0.58572   0.14696   0.12275   1.000
    O571    O    0.51445   0.18546   0.16483   1.000
    H572    H    0.48898   0.97350   0.18094   1.000
    H573    H    0.48991   0.10249   0.83446   1.000
    F574    F    0.11116   0.50558   0.22336   1.000
    F575    F    0.18110   0.49758   0.28961   1.000
