# CIF file generated by openbabel 3.0.0, see http://openbabel.sf.net
data_I
_chemical_name_common 'D:\! BYU CALCULATION\Acidic MOF Patent\Periodic_07_08\mof808_cellopt_pbesol-pos-final.pdb'
_cell_length_a 29.527
_cell_length_b 29.887
_cell_length_c 29.208
_cell_angle_alpha 60.11
_cell_angle_beta 60.8
_cell_angle_gamma 59.23
loop_
    _atom_site_label
    _atom_site_type_symbol
    _atom_site_fract_x
    _atom_site_fract_y
    _atom_site_fract_z
    _atom_site_occupancy
    H0      H    0.42885   0.35327   0.58907   1.000
    H1      H    0.97542   0.33291   0.33102   1.000
    C2      C    0.17355   0.20962   0.29730   1.000
    C3      C    0.86830   0.10940   0.51806   1.000
    H4      H    0.83345   0.07827   0.44584   1.000
    C5      C    0.80742   0.40957   0.45595   1.000
    C6      C    0.16854   0.05073   0.29214   1.000
    H7      H    0.84231   0.22359   0.59759   1.000
    C8      C    0.97095   0.06707   0.27751   1.000
    C9      C    0.81289   0.41993   0.28150   1.000
    H10     H    0.09377   0.08616   0.45973   1.000
    C11     C    0.97117   0.04845   0.64960   1.000
    C12     C    0.85919   0.24380   0.32773   1.000
    C13     C    0.16946   0.19230   0.80804   1.000
    H14     H    0.01640   0.41198   0.76780   1.000
    C15     C    0.31911   0.57117   0.42722   1.000
    C16     C    0.33002   0.56814   0.63804   1.000
    H17     H    0.30111   0.25389   0.64087   1.000
    C18     C    0.94467   0.57778   0.80189   1.000
    C19     C    0.32254   0.40731   0.42294   1.000
    C20     C    0.16471   0.57353   0.80476   1.000
    C21     C    0.33566   0.19468   0.80721   1.000
    C22     C    0.95247   0.57611   0.62969   1.000
    H23     H    0.15470   0.53575   0.49598   1.000
    H24     H    0.29224   0.40644   0.77033   1.000
    C25     C    0.90009   0.36193   0.39379   1.000
    C26     C    0.14284   0.14352   0.29855   1.000
    C27     C    0.90664   0.07082   0.37446   1.000
    C28     C    0.93010   0.35121   0.34332   1.000
    C29     C    0.14336   0.16845   0.32869   1.000
    C30     C    0.87311   0.11467   0.56462   1.000
    C31     C    0.85543   0.10044   0.40444   1.000
    C32     C    0.12247   0.06900   0.38436   1.000
    C33     C    0.91250   0.14741   0.60815   1.000
    C34     C    0.91283   0.15700   0.30017   1.000
    C35     C    0.90327   0.36720   0.30624   1.000
    C36     C    0.12442   0.14795   0.38739   1.000
    C37     C    0.91616   0.07563   0.58832   1.000
    C38     C    0.84155   0.38203   0.41092   1.000
    C39     C    0.14125   0.08932   0.32574   1.000
    C40     C    0.86280   0.18176   0.59526   1.000
    C41     C    0.93049   0.09893   0.31817   1.000
    C42     C    0.84473   0.38689   0.32353   1.000
    C43     C    0.11110   0.10029   0.41433   1.000
    C44     C    0.93369   0.09119   0.61368   1.000
    C45     C    0.86719   0.18614   0.33596   1.000
    C46     C    0.23568   0.23135   0.71525   1.000
    C47     C    0.98867   0.48556   0.78526   1.000
    C48     C    0.23615   0.56623   0.71080   1.000
    C49     C    0.21496   0.21748   0.77370   1.000
    C50     C    0.00100   0.45713   0.75204   1.000
    C51     C    0.28609   0.53348   0.45333   1.000
    C52     C    0.29098   0.53666   0.68386   1.000
    C53     C    0.97426   0.57089   0.70706   1.000
    C54     C    0.22969   0.47229   0.46792   1.000
    C55     C    0.22926   0.48118   0.78779   1.000
    C56     C    0.24268   0.21947   0.80064   1.000
    C57     C    0.99157   0.48490   0.70057   1.000
    C58     C    0.22737   0.55432   0.46962   1.000
    C59     C    0.28597   0.24065   0.68639   1.000
    C60     C    0.97212   0.54366   0.76372   1.000
    C61     C    0.28827   0.45169   0.45125   1.000
    C62     C    0.20918   0.53942   0.76655   1.000
    C63     C    0.29817   0.21774   0.77278   1.000
    C64     C    0.97560   0.54301   0.67854   1.000
    C65     C    0.20008   0.52180   0.47981   1.000
    C66     C    0.27820   0.45155   0.75536   1.000
    O67     O    0.63560   0.29221   0.51585   1.000
    O68     O    0.46928   0.34075   0.57493   1.000
    O69     O    0.54123   0.43112   0.63991   1.000
    H70     H    0.51998   0.28855   0.73158   1.000
    O71     O    0.52133   0.31671   0.69479   1.000
    S72     S    0.60018   0.40383   0.61588   1.000
    O73     O    0.64018   0.41218   0.62208   1.000
    H74     H    0.55508   0.32698   0.67824   1.000
    O75     O    0.61298   0.33967   0.63463   1.000
    O76     O    0.49626   0.23587   0.72019   1.000
    H77     H    0.61709   0.23313   0.65438   1.000
    Zr78    Zr   0.50725   0.29001   0.64411   1.000
    H79     H    0.46826   0.21918   0.73682   1.000
    O80     O    0.60080   0.25384   0.62424   1.000
    H81     H    0.71817   0.12995   0.59805   1.000
    O82     O    0.67911   0.13336   0.60661   1.000
    Zr83    Zr   0.62430   0.33741   0.55730   1.000
    O84     O    0.61150   0.41666   0.55207   1.000
    O85     O    0.54121   0.35397   0.58329   1.000
    H86     H    0.67970   0.10140   0.60445   1.000
    O87     O    0.54550   0.24713   0.58666   1.000
    O88     O    0.51156   0.46893   0.54271   1.000
    Zr89    Zr   0.62994   0.21719   0.55897   1.000
    H90     H    0.55152   0.45390   0.54221   1.000
    Zr91    Zr   0.50132   0.40762   0.52500   1.000
    H92     H    0.64180   0.13931   0.52197   1.000
    O93     O    0.61757   0.15046   0.55514   1.000
    H94     H    0.57773   0.16739   0.55140   1.000
    Zr95    Zr   0.50769   0.28893   0.52359   1.000
    O96     O    0.58835   0.39962   0.48189   1.000
    O97     O    0.52533   0.20196   0.53747   1.000
    O98     O    0.45985   0.49523   0.47819   1.000
    H99     H    0.60231   0.43014   0.45840   1.000
    O100    O    0.53737   0.35554   0.47881   1.000
    O101    O    0.59816   0.25871   0.48280   1.000
    H102    H    0.45370   0.52313   0.49103   1.000
    Zr103   Zr   0.62299   0.33282   0.43890   1.000
    O104    O    0.59465   0.42286   0.37513   1.000
    H105    H    0.55573   0.43857   0.37708   1.000
    H106    H    0.42495   0.50201   0.47299   1.000
    O107    O    0.50618   0.27756   0.45890   1.000
    H108    H    0.60635   0.23480   0.46185   1.000
    S109    S    0.53350   0.21360   0.47528   1.000
    O110    O    0.59425   0.19862   0.44638   1.000
    O111    O    0.50557   0.18895   0.47125   1.000
    H112    H    0.61628   0.40484   0.34577   1.000
    O113    O    0.65005   0.33368   0.36107   1.000
    H114    H    0.68517   0.30744   0.34557   1.000
    H115    H    0.49122   0.46926   0.58121   1.000
    C116    C    0.31898   0.23101   0.71437   1.000
    C117    C    0.31536   0.47828   0.45304   1.000
    C118    C    0.31089   0.47838   0.70523   1.000
    C119    C    0.37089   0.24163   0.68012   1.000
    N120    N    0.39320   0.24984   0.62478   1.000
    N121    N    0.39902   0.25065   0.69791   1.000
    N122    N    0.43905   0.26417   0.65330   1.000
    C123    C    0.36898   0.44549   0.46393   1.000
    N124    N    0.39538   0.46294   0.47540   1.000
    N125    N    0.39117   0.38974   0.47748   1.000
    N126    N    0.43164   0.37367   0.49577   1.000
    C127    C    0.36225   0.44431   0.67459   1.000
    N128    N    0.38741   0.46265   0.61925   1.000
    N129    N    0.38807   0.38951   0.69720   1.000
    N130    N    0.42970   0.37419   0.65538   1.000
    N131    N    0.43564   0.26386   0.60882   1.000
    N132    N    0.42929   0.41882   0.60807   1.000
    N133    N    0.43382   0.41782   0.49498   1.000
    C134    C    0.84044   0.16428   0.57738   1.000
    C135    C    0.81485   0.38510   0.37957   1.000
    C136    C    0.83343   0.15800   0.38419   1.000
    C137    C    0.78465   0.19662   0.57260   1.000
    N138    N    0.75268   0.17453   0.57547   1.000
    N139    N    0.75657   0.25039   0.56861   1.000
    N140    N    0.70547   0.21579   0.57140   1.000
    N141    N    0.70748   0.26104   0.56795   1.000
    C142    C    0.76043   0.37920   0.40710   1.000
    N143    N    0.73453   0.36978   0.46231   1.000
    N144    N    0.73578   0.37082   0.38465   1.000
    N145    N    0.69312   0.35727   0.47332   1.000
    N146    N    0.69368   0.35757   0.42630   1.000
    C147    C    0.77806   0.18672   0.41500   1.000
    N148    N    0.75169   0.16422   0.46900   1.000
    N149    N    0.74647   0.23942   0.39309   1.000
    N150    N    0.70418   0.20464   0.48014   1.000
    N151    N    0.70139   0.24987   0.43466   1.000
    H152    H    0.11583   0.35565   0.58753   1.000
    O153    O    0.04366   0.27915   0.53011   1.000
    O154    O    0.10113   0.34116   0.57643   1.000
    O155    O    0.87549   0.40767   0.66382   1.000
    H156    H    0.94938   0.49574   0.51993   1.000
    O157    O    0.95635   0.45953   0.54878   1.000
    S158    S    0.86745   0.38202   0.63846   1.000
    O159    O    0.81254   0.38850   0.64752   1.000
    H160    H    0.92873   0.44303   0.55963   1.000
    O161    O    0.90101   0.39821   0.57393   1.000
    O162    O    0.03804   0.48289   0.46671   1.000
    H163    H    0.98529   0.41692   0.46709   1.000
    Zr164   Zr   0.04764   0.40846   0.52317   1.000
    H165    H    0.06650   0.49927   0.44855   1.000
    O166    O    0.01037   0.38702   0.48846   1.000
    H167    H    0.04208   0.36734   0.36457   1.000
    O168    O    0.07132   0.37181   0.36922   1.000
    Zr169   Zr   0.96854   0.32089   0.57423   1.000
    O170    O    0.90600   0.31841   0.65380   1.000
    O171    O    0.00822   0.34892   0.58952   1.000
    H172    H    0.10515   0.36847   0.33738   1.000
    O173    O    0.10968   0.34907   0.48284   1.000
    O174    O    0.96162   0.31170   0.70573   1.000
    Zr175   Zr   0.08287   0.32057   0.45374   1.000
    H176    H    0.93767   0.30948   0.69142   1.000
    Zr177   Zr   0.05098   0.29328   0.64449   1.000
    H178    H    0.18562   0.28133   0.37529   1.000
    O179    O    0.16638   0.31347   0.38768   1.000
    H180    H    0.19319   0.30931   0.40481   1.000
    Zr181   Zr   0.16675   0.28734   0.52675   1.000
    O182    O    0.01609   0.24758   0.63887   1.000
    O183    O    0.22336   0.29808   0.43961   1.000
    O184    O    0.05148   0.25031   0.73300   1.000
    H185    H    0.99379   0.22554   0.66985   1.000
    O186    O    0.11348   0.24475   0.59447   1.000
    O187    O    0.14752   0.24489   0.49756   1.000
    H188    H    0.01660   0.26248   0.76119   1.000
    Zr189   Zr   0.09131   0.20348   0.57235   1.000
    O190    O    0.09217   0.13962   0.66232   1.000
    H191    H    0.10973   0.14322   0.68074   1.000
    H192    H    0.08398   0.24790   0.73890   1.000
    O193    O    0.24396   0.22274   0.51777   1.000
    H194    H    0.18463   0.22303   0.47478   1.000
    S195    S    0.26543   0.23640   0.45358   1.000
    O196    O    0.24904   0.20567   0.44056   1.000
    O197    O    0.32213   0.23238   0.42888   1.000
    H198    H    0.12134   0.11158   0.64341   1.000
    O199    O    0.14655   0.12796   0.57169   1.000
    H200    H    0.15917   0.11260   0.54300   1.000
    H201    H    0.94357   0.35112   0.70252   1.000
    C202    C    0.20465   0.24262   0.68161   1.000
    N203    N    0.14953   0.25345   0.69874   1.000
    N204    N    0.22708   0.24957   0.62657   1.000
    N205    N    0.18528   0.26425   0.61048   1.000
    C206    C    0.00431   0.45059   0.67043   1.000
    N207    N    0.01696   0.46674   0.61476   1.000
    N208    N    0.00985   0.39656   0.69496   1.000
    N209    N    0.02594   0.37977   0.65347   1.000
    C210    C    0.19898   0.44044   0.47844   1.000
    N211    N    0.14523   0.46166   0.48093   1.000
    N212    N    0.21991   0.38490   0.49170   1.000
    N213    N    0.17889   0.37199   0.50172   1.000
    N214    N    0.13864   0.26666   0.65401   1.000
    N215    N    0.13339   0.41830   0.49577   1.000
    N216    N    0.02970   0.42272   0.60499   1.000
    C217    C    0.11410   0.17725   0.42127   1.000
    N218    N    0.10404   0.23189   0.40223   1.000
    N219    N    0.11097   0.15435   0.47569   1.000
    N220    N    0.09921   0.19572   0.48970   1.000
    C221    C    0.93141   0.34961   0.42763   1.000
    N222    N    0.91255   0.33802   0.48330   1.000
    N223    N    0.98479   0.34690   0.40656   1.000
    N224    N    0.99791   0.33377   0.45008   1.000
    C225    C    0.94219   0.17310   0.60973   1.000
    N226    N    0.91971   0.22605   0.60798   1.000
    N227    N    0.99740   0.15146   0.60212   1.000
    N228    N    0.00868   0.19173   0.59597   1.000
    N229    N    0.09579   0.24189   0.44530   1.000
    N230    N    0.96154   0.23687   0.59938   1.000
    N231    N    0.95440   0.32929   0.49586   1.000
    H232    H    0.11270   0.36407   0.90395   1.000
    O233    O    0.04810   0.29012   0.11080   1.000
    O234    O    0.10021   0.34939   0.94453   1.000
    O235    O    0.17811   0.41563   0.03143   1.000
    H236    H    0.03765   0.50488   0.99525   1.000
    O237    O    0.06640   0.46806   0.99912   1.000
    S238    S    0.14986   0.39010   0.08909   1.000
    O239    O    0.15408   0.39555   0.13275   1.000
    H240    H    0.07528   0.45223   0.03451   1.000
    O241    O    0.08661   0.40794   0.09616   1.000
    O242    O    0.98924   0.49283   0.96540   1.000
    H243    H    0.98230   0.42750   0.08963   1.000
    Zr244   Zr   0.04441   0.41758   0.98095   1.000
    H245    H    0.97454   0.50995   0.93447   1.000
    O246    O    0.00554   0.39731   0.07429   1.000
    H247    H    0.88194   0.37363   0.18156   1.000
    O248    O    0.88752   0.38029   0.14160   1.000
    Zr249   Zr   0.08927   0.33104   0.10502   1.000
    O250    O    0.16676   0.32697   0.09857   1.000
    O251    O    0.10852   0.35800   0.02041   1.000
    H252    H    0.85659   0.37839   0.13944   1.000
    O253    O    0.00471   0.35959   0.01572   1.000
    O254    O    0.22378   0.31817   0.99853   1.000
    Zr255   Zr   0.97304   0.33092   0.09982   1.000
    H256    H    0.20732   0.31759   0.03871   1.000
    Zr257   Zr   0.16562   0.30083   0.98236   1.000
    H258    H    0.89918   0.29302   0.10622   1.000
    O259    O    0.90996   0.32561   0.08140   1.000
    H260    H    0.92876   0.32092   0.04207   1.000
    Zr261   Zr   0.05129   0.29756   0.97870   1.000
    O262    O    0.15665   0.25740   0.07059   1.000
    O263    O    0.96667   0.30780   0.98993   1.000
    O264    O    0.25500   0.25128   0.94752   1.000
    H265    H    0.18680   0.23424   0.08702   1.000
    O266    O    0.11676   0.25425   0.01418   1.000
    O267    O    0.02030   0.25560   0.06910   1.000
    H268    H    0.28234   0.26316   0.94374   1.000
    Zr269   Zr   0.09265   0.21370   0.10007   1.000
    O270    O    0.18384   0.15064   0.07799   1.000
    H271    H    0.20115   0.15377   0.03871   1.000
    H272    H    0.26366   0.24530   0.91247   1.000
    O273    O    0.04716   0.23167   0.97409   1.000
    H274    H    0.99882   0.23386   0.07517   1.000
    S275    S    0.98330   0.24583   0.99730   1.000
    O276    O    0.96744   0.21617   0.05804   1.000
    O277    O    0.96288   0.24071   0.96519   1.000
    H278    H    0.16644   0.12192   0.09687   1.000
    O279    O    0.09473   0.13753   0.12373   1.000
    H280    H    0.06892   0.12022   0.15607   1.000
    H281    H    0.22091   0.35707   0.97833   1.000
    C282    C    0.20971   0.23436   0.85144   1.000
    N283    N    0.22643   0.24741   0.87768   1.000
    N284    N    0.15375   0.25022   0.86974   1.000
    N285    N    0.13663   0.27138   0.90778   1.000
    C286    C    0.19816   0.44979   0.84043   1.000
    N287    N    0.14240   0.46963   0.86367   1.000
    N288    N    0.22064   0.39604   0.86907   1.000
    N289    N    0.17773   0.38325   0.91052   1.000
    C290    C    0.99994   0.45187   0.83847   1.000
    N291    N    0.00608   0.47011   0.86836   1.000
    N292    N    0.01220   0.39642   0.86034   1.000
    N293    N    0.02592   0.38097   0.90408   1.000
    N294    N    0.18031   0.27029   0.91227   1.000
    N295    N    0.02222   0.42570   0.90873   1.000
    N296    N    0.13040   0.42826   0.90724   1.000
    C297    C    0.94304   0.18739   0.24595   1.000
    N298    N    0.91917   0.23839   0.21361   1.000
    N299    N    0.99897   0.16903   0.22379   1.000
    N300    N    0.00948   0.20938   0.17752   1.000
    C301    C    0.93826   0.35890   0.25231   1.000
    N302    N    0.99280   0.35212   0.22974   1.000
    N303    N    0.92190   0.35299   0.22034   1.000
    N304    N    0.96672   0.34224   0.17840   1.000
    C305    C    0.13566   0.17621   0.24338   1.000
    N306    N    0.12430   0.23148   0.22039   1.000
    N307    N    0.12807   0.15775   0.21465   1.000
    N308    N    0.11345   0.20163   0.17328   1.000
    N309    N    0.96160   0.25132   0.17174   1.000
    N310    N    0.11124   0.24642   0.17669   1.000
    N311    N    0.00926   0.34211   0.18363   1.000
    H312    H    0.11029   0.67447   0.59152   1.000
    O313    O    0.04074   0.88048   0.51719   1.000
    O314    O    0.09620   0.71474   0.57743   1.000
    O315    O    0.86634   0.79851   0.64328   1.000
    H316    H    0.95192   0.76307   0.73387   1.000
    O317    O    0.95737   0.76910   0.69571   1.000
    S318    S    0.86181   0.85587   0.61842   1.000
    O319    O    0.80806   0.89871   0.62432   1.000
    H320    H    0.92818   0.80371   0.68057   1.000
    O321    O    0.89933   0.86374   0.63650   1.000
    O322    O    0.04301   0.73296   0.72173   1.000
    H323    H    0.99158   0.85635   0.65729   1.000
    Zr324   Zr   0.04820   0.75124   0.64503   1.000
    H325    H    0.07268   0.70261   0.73736   1.000
    O326    O    0.01498   0.84232   0.62611   1.000
    H327    H    0.05785   0.95199   0.59651   1.000
    O328    O    0.08413   0.91222   0.60445   1.000
    Zr329   Zr   0.96506   0.87313   0.55901   1.000
    O330    O    0.89842   0.86656   0.55460   1.000
    O331    O    0.00464   0.79019   0.58445   1.000
    H332    H    0.12077   0.91004   0.59830   1.000
    O333    O    0.11136   0.78645   0.58495   1.000
    O334    O    0.95123   0.76921   0.54246   1.000
    Zr335   Zr   0.08645   0.86980   0.55743   1.000
    H336    H    0.92766   0.80845   0.54379   1.000
    Zr337   Zr   0.04283   0.75167   0.52700   1.000
    H338    H    0.19117   0.87829   0.51344   1.000
    O339    O    0.17438   0.85323   0.54803   1.000
    H340    H    0.19975   0.81431   0.54313   1.000
    Zr341   Zr   0.16308   0.74971   0.52267   1.000
    O342    O    0.00696   0.83962   0.48351   1.000
    O343    O    0.22754   0.76255   0.52887   1.000
    O344    O    0.03733   0.70896   0.48513   1.000
    H345    H    0.98326   0.85570   0.46069   1.000
    O346    O    0.10632   0.78351   0.47952   1.000
    O347    O    0.14435   0.84083   0.48056   1.000
    H348    H    0.00154   0.70454   0.49997   1.000
    Zr349   Zr   0.08331   0.87054   0.43998   1.000
    O350    O    0.07881   0.84871   0.37525   1.000
    H351    H    0.10044   0.81048   0.37596   1.000
    H352    H    0.06867   0.67276   0.48318   1.000
    O353    O    0.23581   0.74768   0.45316   1.000
    H354    H    0.18166   0.84702   0.45736   1.000
    S355    S    0.26340   0.77118   0.46551   1.000
    O356    O    0.24656   0.83184   0.43666   1.000
    O357    O    0.32150   0.74091   0.45740   1.000
    H358    H    0.10365   0.87053   0.34648   1.000
    O359    O    0.13065   0.89842   0.36265   1.000
    H360    H    0.13868   0.93216   0.34665   1.000
    H361    H    0.93463   0.74707   0.58013   1.000
    C362    C    0.19462   0.60647   0.48168   1.000
    N363    N    0.14001   0.63642   0.48663   1.000
    N364    N    0.21591   0.62937   0.49278   1.000
    N365    N    0.17486   0.67387   0.50322   1.000
    C366    C    0.98586   0.62248   0.67679   1.000
    N367    N    0.00303   0.64004   0.69845   1.000
    N368    N    0.99473   0.64998   0.62166   1.000
    N369    N    0.01682   0.68455   0.61010   1.000
    C370    C    0.20472   0.61953   0.67783   1.000
    N371    N    0.14986   0.64750   0.69708   1.000
    N372    N    0.22345   0.63852   0.62145   1.000
    N373    N    0.18006   0.67855   0.60657   1.000
    N374    N    0.12888   0.67798   0.50031   1.000
    N375    N    0.13537   0.68366   0.65243   1.000
    N376    N    0.02143   0.67888   0.65688   1.000
    C377    C    0.11158   0.01731   0.41549   1.000
    N378    N    0.11359   0.98625   0.46796   1.000
    N379    N    0.09756   0.99490   0.39604   1.000
    N380    N    0.09182   0.94924   0.43657   1.000
    C381    C    0.94269   0.02044   0.58400   1.000
    N382    N    0.91606   0.99435   0.58458   1.000
    N383    N    0.99743   0.99035   0.57543   1.000
    N384    N    0.00408   0.94608   0.56998   1.000
    C385    C    0.93531   0.01451   0.40510   1.000
    N386    N    0.91300   0.98938   0.45990   1.000
    N387    N    0.98982   0.98585   0.38606   1.000
    N388    N    0.00096   0.94278   0.42946   1.000
    N389    N    0.10128   0.94409   0.47977   1.000
    N390    N    0.95454   0.94485   0.47436   1.000
    N391    N    0.95543   0.94836   0.57522   1.000
    F392    F    0.84201   0.45029   0.23377   1.000
    F393    F    0.76365   0.45744   0.30004   1.000
    F394    F    0.80273   0.39068   0.26649   1.000
    F395    F    0.75949   0.44987   0.44626   1.000
    F396    F    0.83623   0.43673   0.45104   1.000
    F397    F    0.79564   0.37563   0.50829   1.000
    F398    F    0.20874   0.06585   0.24504   1.000
    F399    F    0.13405   0.04647   0.27822   1.000
    F400    F    0.19596   0.99879   0.32179   1.000
    F401    F    0.21202   0.20087   0.24916   1.000
    F402    F    0.20327   0.19958   0.32769   1.000
    F403    F    0.14169   0.26350   0.28516   1.000
    F404    F    0.84948   0.16069   0.48210   1.000
    F405    F    0.83484   0.08268   0.53415   1.000
    F406    F    0.91928   0.08353   0.48713   1.000
    F407    F    0.95909   0.00128   0.67837   1.000
    F408    F    0.96291   0.06620   0.68851   1.000
    F409    F    0.02625   0.03390   0.62091   1.000
    F410    F    0.90912   0.25034   0.30491   1.000
    F411    F    0.83675   0.25221   0.37729   1.000
    F412    F    0.82702   0.28463   0.29564   1.000
    F413    F    0.96328   0.09755   0.22658   1.000
    F414    F    0.96072   0.02082   0.29451   1.000
    F415    F    0.02503   0.05174   0.27003   1.000
    F416    F    0.36835   0.55213   0.38959   1.000
    F417    F    0.33102   0.57662   0.46293   1.000
    F418    F    0.29205   0.62221   0.39720   1.000
    F419    F    0.37110   0.41493   0.38585   1.000
    F420    F    0.29487   0.41558   0.39167   1.000
    F421    F    0.33416   0.35486   0.45640   1.000
    F422    F    0.90998   0.62878   0.78031   1.000
    F423    F    0.97914   0.58395   0.81403   1.000
    F424    F    0.91128   0.55352   0.85086   1.000
    F425    F    0.91444   0.62639   0.63334   1.000
    F426    F    0.92427   0.55055   0.63176   1.000
    F427    F    0.99090   0.58447   0.57863   1.000
    F428    F    0.38699   0.16216   0.78451   1.000
    F429    F    0.31631   0.16083   0.85893   1.000
    F430    F    0.34145   0.23287   0.81423   1.000
    F431    F    0.17744   0.15923   0.78314   1.000
    F432    F    0.11665   0.22841   0.81382   1.000
    F433    F    0.17367   0.15839   0.85934   1.000
    F434    F    0.31235   0.61770   0.64295   1.000
    F435    F    0.33763   0.57677   0.58537   1.000
    F436    F    0.38098   0.53984   0.64582   1.000
    F437    F    0.17296   0.62128   0.78675   1.000
    F438    F    0.17027   0.54604   0.85643   1.000
    F439    F    0.11176   0.58685   0.81008   1.000
