# CIF file generated by openbabel 3.0.0, see http://openbabel.sf.net
data_I
_chemical_name_common 'D:\! BYU CALCULATION\Acidic MOF Patent\Periodic_01_00\mof808_cellopt_pbesol-pos-final.pdb'
_cell_length_a 27.377
_cell_length_b 27.284
_cell_length_c 27.214
_cell_angle_alpha 60.44
_cell_angle_beta 59.91
_cell_angle_gamma 59.09
loop_
    _atom_site_label
    _atom_site_type_symbol
    _atom_site_fract_x
    _atom_site_fract_y
    _atom_site_fract_z
    _atom_site_occupancy
    H6      H    0.94902   0.91365   0.15676   1.000
    H7      H    0.09430   0.76784   0.15492   1.000
    H8      H    0.79488   0.61865   0.45447   1.000
    H9      H    0.79590   0.61781   0.31016   1.000
    H10     H    0.79222   0.91534   0.31634   1.000
    H11     H    0.09433   0.61101   0.15215   1.000
    H12     H    0.79306   0.77622   0.45706   1.000
    H13     H    0.95292   0.61221   0.15080   1.000
    H14     H    0.78842   0.91748   0.15868   1.000
    H15     H    0.09482   0.60968   0.31128   1.000
    H16     H    0.95404   0.61709   0.45267   1.000
    H17     H    0.79556   0.77506   0.15304   1.000
    H18     H    0.11697   0.79485   0.64105   1.000
    H19     H    0.97731   0.93657   0.62130   1.000
    H20     H    0.25587   0.09891   0.34344   1.000
    H21     H    0.27532   0.07918   0.48035   1.000
    H22     H    0.26492   0.79677   0.47390   1.000
    H23     H    0.97216   0.08507   0.64401   1.000
    H24     H    0.28274   0.93118   0.33802   1.000
    H25     H    0.10639   0.10392   0.62605   1.000
    H26     H    0.28251   0.79530   0.62359   1.000
    H27     H    0.97892   0.10221   0.47431   1.000
    H28     H    0.11278   0.07882   0.33735   1.000
    H29     H    0.25423   0.93407   0.64732   1.000
    C30     C    0.90927   0.90722   0.27222   1.000
    C31     C    0.08701   0.72659   0.08680   1.000
    C32     C    0.72612   0.73483   0.45039   1.000
    C33     C    0.91149   0.54762   0.26685   1.000
    C34     C    0.87387   0.91531   0.23966   1.000
    C35     C    0.09485   0.69251   0.14655   1.000
    C36     C    0.78660   0.70055   0.45724   1.000
    C37     C    0.87750   0.60802   0.23344   1.000
    C38     C    0.90197   0.91610   0.17982   1.000
    C39     C    0.09561   0.72128   0.17696   1.000
    C40     C    0.81724   0.64085   0.45666   1.000
    C41     C    0.81816   0.63958   0.26327   1.000
    C42     C    0.72232   0.91261   0.27366   1.000
    C43     C    0.08936   0.54276   0.26748   1.000
    C44     C    0.91023   0.73146   0.45102   1.000
    C45     C    0.91051   0.72970   0.08456   1.000
    C46     C    0.78294   0.91802   0.24029   1.000
    C47     C    0.09566   0.60298   0.23491   1.000
    C48     C    0.87646   0.69910   0.45711   1.000
    C49     C    0.87711   0.69691   0.14467   1.000
    C50     C    0.90489   0.91069   0.08953   1.000
    C51     C    0.08962   0.72570   0.26945   1.000
    C52     C    0.91010   0.54969   0.44797   1.000
    C53     C    0.72790   0.73417   0.26886   1.000
    C54     C    0.87173   0.91702   0.15022   1.000
    C55     C    0.09571   0.69193   0.23608   1.000
    C56     C    0.87717   0.61016   0.45550   1.000
    C57     C    0.78814   0.69951   0.23469   1.000
    C58     C    0.81415   0.91699   0.26931   1.000
    C59     C    0.09583   0.63321   0.17544   1.000
    C60     C    0.81628   0.72913   0.45818   1.000
    C61     C    0.90632   0.63651   0.17382   1.000
    C62     C    0.81197   0.91841   0.18077   1.000
    C63     C    0.09608   0.63253   0.26461   1.000
    C64     C    0.90646   0.63971   0.45581   1.000
    C65     C    0.81800   0.72767   0.17517   1.000
    C66     C    0.14951   0.79918   0.52747   1.000
    C67     C    0.97761   0.96961   0.70080   1.000
    C68     C    0.33793   0.98635   0.34276   1.000
    C69     C    0.16106   0.15928   0.51108   1.000
    C70     C    0.18738   0.79478   0.55488   1.000
    C71     C    0.97423   0.00710   0.63962   1.000
    C72     C    0.27655   0.01271   0.33954   1.000
    C73     C    0.18816   0.09839   0.54937   1.000
    C74     C    0.16328   0.79399   0.61432   1.000
    C75     C    0.97606   0.98285   0.60348   1.000
    C76     C    0.23953   0.07162   0.34048   1.000
    C77     C    0.24772   0.06189   0.52644   1.000
    C78     C    0.34185   0.79877   0.50857   1.000
    C79     C    0.97584   0.16254   0.53110   1.000
    C80     C    0.17056   0.96455   0.33600   1.000
    C81     C    0.13849   0.99111   0.70465   1.000
    C82     C    0.28092   0.79464   0.54543   1.000
    C83     C    0.97412   0.10100   0.55672   1.000
    C84     C    0.19564   0.00151   0.33596   1.000
    C85     C    0.17671   0.01655   0.64374   1.000
    C86     C    0.16830   0.79729   0.70134   1.000
    C87     C    0.98301   0.98813   0.50620   1.000
    C88     C    0.14318   0.15872   0.34035   1.000
    C89     C    0.33436   0.96439   0.53571   1.000
    C90     C    0.19705   0.79391   0.63971   1.000
    C91     C    0.97750   0.01665   0.54409   1.000
    C92     C    0.18089   0.09631   0.33860   1.000
    C93     C    0.27212   0.00295   0.56156   1.000
    C94     C    0.24634   0.79496   0.52075   1.000
    C95     C    0.97291   0.06633   0.61602   1.000
    C96     C    0.25418   0.97779   0.33748   1.000
    C97     C    0.15309   0.07557   0.60822   1.000
    C98     C    0.25588   0.79422   0.60491   1.000
    C99     C    0.97668   0.07572   0.52098   1.000
    C100    C    0.15905   0.06080   0.33703   1.000
    C101    C    0.23616   0.98051   0.62005   1.000
    S102    S    0.86871   0.93077   0.33381   1.000
    S103    S    0.11433   0.68637   0.04076   1.000
    S104    S    0.68137   0.79483   0.47596   1.000
    S105    S    0.96928   0.50051   0.22685   1.000
    S106    S    0.18823   0.16853   0.43682   1.000
    S107    S    0.34874   0.01491   0.37918   1.000
    S108    S    0.01518   0.89448   0.71146   1.000
    S109    S    0.07402   0.83243   0.55699   1.000
    O110    O    0.07192   0.32048   0.33278   1.000
    O111    O    0.00902   0.82558   0.36408   1.000
    O112    O    0.00415   0.82382   0.97768   1.000
    O113    O    0.61469   0.83089   0.36659   1.000
    O114    O    0.00714   0.43582   0.36274   1.000
    S115    S    0.67720   0.93993   0.23294   1.000
    S116    S    0.11143   0.50037   0.32955   1.000
    S117    S    0.97196   0.68900   0.47310   1.000
    S118    S    0.86780   0.79327   0.04376   1.000
    S119    S    0.96628   0.93186   0.04788   1.000
    S120    S    0.11576   0.78406   0.22838   1.000
    S121    S    0.86766   0.50915   0.47068   1.000
    S122    S    0.68704   0.69231   0.33090   1.000
    S123    S    0.35050   0.88900   0.56429   1.000
    S124    S    0.06668   0.17409   0.37434   1.000
    S125    S    0.02019   0.01270   0.43171   1.000
    S126    S    0.19446   0.83271   0.71603   1.000
    S127    S    0.06310   0.02200   0.71827   1.000
    S128    S    0.20040   0.88801   0.36883   1.000
    S129    S    0.00579   0.17739   0.56138   1.000
    S130    S    0.35407   0.83451   0.43400   1.000
    O131    O    0.08008   0.32500   0.43884   1.000
    O132    O    0.96572   0.33187   0.44246   1.000
    S133    S    0.18693   0.77128   0.46947   1.000
    S134    S    0.94666   0.00642   0.75047   1.000
    S135    S    0.38785   0.93026   0.31334   1.000
    S136    S    0.10513   0.20993   0.54695   1.000
    S137    S    0.88893   0.53671   0.34070   1.000
    S138    S    0.71282   0.71056   0.41295   1.000
    S139    S    0.04823   0.80130   0.07520   1.000
    S140    S    0.98429   0.87278   0.24575   1.000
    O141    O    0.97419   0.39583   0.47735   1.000
    O142    O    0.07449   0.88686   0.43194   1.000
    O143    O    0.06730   0.89591   0.78294   1.000
    O144    O    0.41975   0.89040   0.43825   1.000
    O145    O    0.06372   0.24189   0.43597   1.000
    S146    S    0.39003   0.76999   0.54583   1.000
    S147    S    0.94780   0.21076   0.47364   1.000
    S148    S    0.11416   0.00198   0.30761   1.000
    S149    S    0.17552   0.93353   0.75303   1.000
    S150    S    0.11151   0.77086   0.74716   1.000
    S151    S    0.95375   0.93284   0.54248   1.000
    S152    S    0.18081   0.20483   0.31208   1.000
    S153    S    0.38208   0.00143   0.47968   1.000
    S154    S    0.70974   0.80924   0.24410   1.000
    S155    S    0.98595   0.53166   0.41308   1.000
    S156    S    0.05398   0.70277   0.34415   1.000
    S157    S    0.87888   0.87857   0.07189   1.000
    S158    S    0.98583   0.70148   0.06687   1.000
    S159    S    0.88386   0.80728   0.41814   1.000
    S160    S    0.05838   0.52566   0.24078   1.000
    S161    S    0.70844   0.87674   0.34796   1.000
    O162    O    0.96657   0.39085   0.33394   1.000
    O163    O    0.11923   0.38410   0.32794   1.000
    Nb164   Nb   0.05394   0.41273   0.28324   1.000
    Nb165   Nb   0.05864   0.41680   0.40663   1.000
    Nb166   Nb   0.92473   0.42500   0.41505   1.000
    Nb167   Nb   0.01122   0.29136   0.50588   1.000
    Nb168   Nb   0.00149   0.28994   0.38343   1.000
    Nb169   Nb   0.13619   0.28301   0.37291   1.000
    O171    O    0.20552   0.29135   0.38706   1.000
    O172    O    0.21887   0.28345   0.29905   1.000
    S173    S    0.24787   0.30306   0.31952   1.000
    O174    O    0.23335   0.36897   0.29157   1.000
    O175    O    0.31010   0.26629   0.31334   1.000
    O176    O    0.75406   0.45463   0.47847   1.000
    S177    S    0.81032   0.40480   0.47305   1.000
    O178    O    0.84965   0.40489   0.49966   1.000
    O179    O    0.85453   0.41792   0.40538   1.000
    O180    O    0.81021   0.34454   0.49348   1.000
    O181    O    0.15246   0.38470   0.41456   1.000
    H182    H    0.17725   0.40899   0.38173   1.000
    O183    O    0.99685   0.30325   0.57938   1.000
    H184    H    0.02406   0.28971   0.60025   1.000
    O186    O    0.05281   0.42088   0.49321   1.000
    H187    H    0.09601   0.40827   0.48640   1.000
    O188    O    0.91241   0.30636   0.56084   1.000
    H189    H    0.88249   0.34273   0.54073   1.000
    O190    O    0.90568   0.31807   0.38473   1.000
    H191    H    0.87992   0.29619   0.42070   1.000
    O192    O    0.00422   0.28893   0.29435   1.000
    H194    H    0.96174   0.29736   0.30232   1.000
    O195    O    0.12848   0.40507   0.21162   1.000
    O196    O    0.04959   0.38108   0.22013   1.000
    H197    H    0.04110   0.34354   0.23841   1.000
    H198    H    0.09289   0.37342   0.19622   1.000
    H199    H    0.88304   0.36102   0.38934   1.000
    H200    H    0.03248   0.46218   0.49509   1.000
    H201    H    0.16514   0.41129   0.20056   1.000
    H202    H    0.90703   0.31202   0.59631   1.000
    O203    O    0.50197   0.99229   0.50320   1.000
    H204    H    0.48284   0.82045   0.60115   1.000
    O205    O    0.47631   0.85619   0.56644   1.000
    S206    S    0.56446   0.95415   0.48340   1.000
    O207    O    0.60979   0.95879   0.49160   1.000
    H208    H    0.51076   0.87169   0.54722   1.000
    O209    O    0.57029   0.88647   0.50750   1.000
    O210    O    0.47968   0.75464   0.58064   1.000
    Nb212   Nb   0.46745   0.82602   0.50844   1.000
    H213    H    0.46995   0.71858   0.59792   1.000
    O214    O    0.57245   0.78967   0.48089   1.000
    O216    O    0.60694   0.66783   0.49281   1.000
    Nb217   Nb   0.59702   0.87429   0.42101   1.000
    O218    O    0.58244   0.96301   0.41460   1.000
    O219    O    0.50510   0.89555   0.44699   1.000
    H220    H    0.59542   0.64441   0.48443   1.000
    O221    O    0.50703   0.78905   0.44004   1.000
    O222    O    0.48449   0.03020   0.39055   1.000
    Nb223   Nb   0.59972   0.75305   0.40847   1.000
    Nb225   Nb   0.46386   0.95920   0.38778   1.000
    H226    H    0.60120   0.66110   0.38312   1.000
    O227    O    0.57348   0.67973   0.41505   1.000
    H228    H    0.53259   0.70338   0.40574   1.000
    Nb229   Nb   0.46723   0.83861   0.37318   1.000
    O230    O    0.56388   0.94553   0.33950   1.000
    O231    O    0.48308   0.74532   0.38343   1.000
    O232    O    0.46027   0.04615   0.29972   1.000
    O234    O    0.50032   0.90740   0.33528   1.000
    O235    O    0.57020   0.80097   0.32919   1.000
    H236    H    0.46604   0.07383   0.30801   1.000
    Nb237   Nb   0.59411   0.88386   0.28678   1.000
    O238    O    0.55922   0.98245   0.22421   1.000
    H239    H    0.51946   0.00923   0.24320   1.000
    H240    H    0.41716   0.06228   0.30340   1.000
    O241    O    0.47451   0.82772   0.29668   1.000
    S243    S    0.49824   0.75819   0.31495   1.000
    O244    O    0.56475   0.73666   0.28754   1.000
    O245    O    0.46621   0.73637   0.30635   1.000
    H246    H    0.55454   0.96753   0.20070   1.000
    O247    O    0.59045   0.88565   0.21431   1.000
    H248    H    0.59656   0.85277   0.20423   1.000
    H249    H    0.45971   0.04397   0.42607   1.000
    O250    O    0.17435   0.63636   0.49236   1.000
    H251    H    0.01067   0.73108   0.59649   1.000
    O252    O    0.04355   0.73733   0.55860   1.000
    S253    S    0.13553   0.63308   0.47337   1.000
    O254    O    0.14021   0.57512   0.48026   1.000
    H255    H    0.05680   0.70646   0.53970   1.000
    O256    O    0.06791   0.67188   0.49993   1.000
    O257    O    0.94084   0.82339   0.57884   1.000
    Nb259   Nb   0.00987   0.83549   0.50423   1.000
    H260    H    0.90806   0.84829   0.60388   1.000
    O261    O    0.97081   0.79647   0.47861   1.000
    O263    O    0.84970   0.87612   0.49603   1.000
    Nb264   Nb   0.05374   0.74485   0.41595   1.000
    O265    O    0.14331   0.67525   0.40542   1.000
    O266    O    0.07789   0.78810   0.44049   1.000
    H267    H    0.82462   0.91935   0.48936   1.000
    O268    O    0.97162   0.90257   0.43745   1.000
    O269    O    0.21087   0.72777   0.38075   1.000
    Nb270   Nb   0.93300   0.87931   0.40838   1.000
    Nb272   Nb   0.14127   0.82305   0.37976   1.000
    H273    H    0.84281   0.99768   0.38339   1.000
    O274    O    0.86064   0.97420   0.41555   1.000
    H275    H    0.88475   0.99946   0.40668   1.000
    Nb276   Nb   0.02101   0.95797   0.36968   1.000
    O277    O    0.12448   0.78569   0.33291   1.000
    O278    O    0.92779   0.02738   0.38428   1.000
    O279    O    0.22613   0.82600   0.28884   1.000
    O281    O    0.08843   0.89226   0.32960   1.000
    O282    O    0.98072   0.93820   0.32754   1.000
    H283    H    0.25426   0.78397   0.29592   1.000
    Nb284   Nb   0.06232   0.87089   0.28324   1.000
    O285    O    0.16029   0.86574   0.21794   1.000
    H286    H    0.18847   0.86071   0.23406   1.000
    H287    H    0.24230   0.84933   0.29202   1.000
    O288    O    0.00866   0.03848   0.29511   1.000
    S290    S    0.93892   0.06795   0.31638   1.000
    O291    O    0.91493   0.05183   0.29050   1.000
    O292    O    0.91789   0.13051   0.30913   1.000
    H293    H    0.14699   0.90753   0.19143   1.000
    O294    O    0.06300   0.94213   0.20934   1.000
    H295    H    0.02999   0.97597   0.19568   1.000
    H296    H    0.22381   0.70300   0.41644   1.000
    O297    O    0.16592   0.95055   0.87413   1.000
    H298    H    0.99563   0.05759   0.85089   1.000
    O299    O    0.03109   0.02129   0.84524   1.000
    S300    S    0.12843   0.93208   0.93607   1.000
    O301    O    0.13479   0.93902   0.98136   1.000
    H302    H    0.04578   0.00089   0.88076   1.000
    O303    O    0.06023   0.95937   0.94118   1.000
    O304    O    0.92992   0.04109   0.84211   1.000
    Nb306   Nb   0.00145   0.96675   0.83145   1.000
    H307    H    0.89533   0.06157   0.82854   1.000
    O308    O    0.96355   0.93934   0.93594   1.000
    O310    O    0.84367   0.95849   0.96039   1.000
    Nb311   Nb   0.04724   0.87535   0.96443   1.000
    O312    O    0.13673   0.86382   0.95305   1.000
    O313    O    0.06991   0.90184   0.87216   1.000
    H314    H    0.81943   0.95039   0.94978   1.000
    O315    O    0.96521   0.90026   0.86692   1.000
    O316    O    0.20501   0.83972   0.85546   1.000
    Nb317   Nb   0.92760   0.86961   0.95833   1.000
    H318    H    0.18043   0.84509   0.89800   1.000
    Nb319   Nb   0.13449   0.84197   0.83091   1.000
    H320    H    0.83954   0.84508   0.95421   1.000
    O321    O    0.85520   0.87838   0.92940   1.000
    H322    H    0.87976   0.87087   0.88726   1.000
    Nb323   Nb   0.01615   0.83357   0.82522   1.000
    O324    O    0.11902   0.79296   0.93043   1.000
    O325    O    0.92215   0.84992   0.83691   1.000
    O326    O    0.22009   0.74977   0.82961   1.000
    O328    O    0.08335   0.79216   0.86217   1.000
    O329    O    0.97654   0.79004   0.92725   1.000
    H330    H    0.24723   0.75698   0.83700   1.000
    Nb331   Nb   0.05865   0.74358   0.95475   1.000
    O332    O    0.15730   0.67785   0.92313   1.000
    H333    H    0.18417   0.69610   0.88448   1.000
    O335    O    0.00446   0.76085   0.82755   1.000
    S337    S    0.93461   0.78237   0.84923   1.000
    O338    O    0.91261   0.75435   0.91489   1.000
    O339    O    0.91279   0.77699   0.81447   1.000
    H340    H    0.14311   0.65498   0.91704   1.000
    O341    O    0.06142   0.67265   0.94759   1.000
    H342    H    0.02873   0.66324   0.95323   1.000
    H343    H    0.21725   0.87540   0.83324   1.000
