# CIF file generated by openbabel 3.0.0, see http://openbabel.sf.net
data_I
_chemical_name_common 'D:\! BYU CALCULATION\MOF screening\mofs_30-pos-final.pdb'
_cell_length_a 25.2
_cell_length_b 25.081
_cell_length_c 25.177
_cell_angle_alpha 59.34
_cell_angle_beta 59.4
_cell_angle_gamma 59.57
_space_group_name_H-M_alt 'P 1'
_space_group_name_Hall 'P 1'
loop_
    _symmetry_equiv_pos_as_xyz
    x,y,z
loop_
    _atom_site_label
    _atom_site_type_symbol
    _atom_site_fract_x
    _atom_site_fract_y
    _atom_site_fract_z
    _atom_site_occupancy
    O0      O    0.13899   0.26018   0.28638   1.000
    O1      O    0.18393   0.21161   0.18811   1.000
    O2      O    0.93586   0.47077   0.56687   1.000
    O3      O    0.90458   0.55039   0.62638   1.000
    O4      O    0.74095   0.34611   0.68722   1.000
    O5      O    0.63294   0.41359   0.75983   1.000
    O6      O    0.02803   0.06033   0.48253   1.000
    O7      O    0.08711   0.95285   0.44956   1.000
    O8      O    0.75214   0.45117   0.48086   1.000
    O9      O    0.65231   0.53731   0.44922   1.000
    O10     O    0.02930   0.26156   0.67328   1.000
    O11     O    0.08162   0.22621   0.75566   1.000
    O12     O    0.13832   0.06468   0.57246   1.000
    O13     O    0.21298   0.96023   0.63614   1.000
    O14     O    0.93876   0.34787   0.29192   1.000
    O15     O    0.89215   0.42233   0.19419   1.000
    O16     O    0.93627   0.06004   0.69095   1.000
    O17     O    0.90446   0.95184   0.76945   1.000
    O18     O    0.13638   0.35251   0.47973   1.000
    O19     O    0.21735   0.41441   0.44323   1.000
    O20     O    0.02801   0.46848   0.28059   1.000
    O21     O    0.12110   0.51353   0.20027   1.000
    O22     O    0.74069   0.25445   0.57055   1.000
    O23     O    0.03858   0.55484   0.68800   1.000
    O24     O    0.97771   0.60820   0.59999   1.000
    O25     O    0.23372   0.35597   0.97364   1.000
    O26     O    0.26568   0.27423   0.08998   1.000
    O27     O    0.43207   0.45887   0.77666   1.000
    O28     O    0.53711   0.37399   0.82116   1.000
    O29     O    0.14749   0.74814   0.58649   1.000
    O30     O    0.05288   0.85455   0.52683   1.000
    O31     O    0.43075   0.35889   0.68594   1.000
    O32     O    0.52381   0.30218   0.59537   1.000
    O33     O    0.14608   0.55013   0.96795   1.000
    O34     O    0.06084   0.60848   0.05706   1.000
    O35     O    0.05062   0.74259   0.77411   1.000
    O36     O    0.97356   0.84408   0.82410   1.000
    O37     O    0.23686   0.46652   0.57894   1.000
    O38     O    0.28099   0.38384   0.51334   1.000
    O39     O    0.23753   0.74692   0.68491   1.000
    O40     O    0.27739   0.85882   0.60612   1.000
    O41     O    0.03356   0.46478   0.97526   1.000
    O42     O    0.95175   0.39595   0.09184   1.000
    O43     O    0.14394   0.36842   0.77244   1.000
    O44     O    0.06196   0.30199   0.81900   1.000
    O45     O    0.43302   0.55219   0.58007   1.000
    O46     O    0.53904   0.59629   0.50377   1.000
    O47     O    0.03830   0.55481   0.97119   1.000
    O48     O    0.95750   0.59683   0.08203   1.000
    O49     O    0.23681   0.36040   0.68462   1.000
    O50     O    0.27873   0.28075   0.61201   1.000
    O51     O    0.43375   0.46288   0.57727   1.000
    O52     O    0.15053   0.74834   0.77936   1.000
    O53     O    0.07493   0.85355   0.82170   1.000
    O54     O    0.43329   0.35209   0.77789   1.000
    O55     O    0.54936   0.26959   0.81120   1.000
    O56     O    0.14608   0.55738   0.58139   1.000
    O57     O    0.07999   0.59657   0.49710   1.000
    O58     O    0.03545   0.75155   0.68800   1.000
    O59     O    0.23729   0.45999   0.97330   1.000
    O60     O    0.28032   0.37502   0.08051   1.000
    O61     O    0.24079   0.75186   0.57585   1.000
    O62     O    0.27411   0.86778   0.49749   1.000
    O63     O    0.02986   0.46561   0.78088   1.000
    O64     O    0.14218   0.36352   0.96982   1.000
    O65     O    0.05490   0.30383   0.06334   1.000
    O66     O    0.43248   0.55019   0.68511   1.000
    O67     O    0.54360   0.59139   0.60945   1.000
    O68     O    0.14407   0.25995   0.56908   1.000
    O69     O    0.20306   0.21002   0.65503   1.000
    O70     O    0.93742   0.46316   0.28726   1.000
    O71     O    0.89480   0.53075   0.18717   1.000
    O72     O    0.74313   0.34568   0.47900   1.000
    O73     O    0.64426   0.44568   0.42797   1.000
    O74     O    0.02785   0.06096   0.68717   1.000
    O75     O    0.10187   0.95572   0.75438   1.000
    O76     O    0.74624   0.45674   0.57114   1.000
    O77     O    0.64028   0.52370   0.64733   1.000
    O78     O    0.02782   0.25579   0.28407   1.000
    O79     O    0.13349   0.06767   0.48327   1.000
    O80     O    0.19864   0.96422   0.43926   1.000
    O81     O    0.93729   0.35132   0.67638   1.000
    O82     O    0.88035   0.44387   0.72671   1.000
    O83     O    0.93811   0.06400   0.57433   1.000
    O84     O    0.88515   0.97506   0.66416   1.000
    O85     O    0.13745   0.35253   0.28432   1.000
    O86     O    0.22121   0.41429   0.17476   1.000
    O87     O    0.02782   0.46822   0.47684   1.000
    O88     O    0.11411   0.52466   0.43396   1.000
    O89     O    0.74406   0.25543   0.68437   1.000
    O90     O    0.64641   0.20744   0.72848   1.000
    Zr91    Zr   0.10458   0.29427   0.20322   1.000
    O92     O    0.14507   0.31122   0.09557   1.000
    Zr93    Zr   0.96395   0.43726   0.65253   1.000
    O94     O    0.98890   0.47616   0.69679   1.000
    Zr95    Zr   0.65968   0.42941   0.65263   1.000
    O96     O    0.54962   0.46845   0.69566   1.000
    Zr97    Zr   0.10680   0.97864   0.51574   1.000
    O98     O    0.15089   0.86864   0.53910   1.000
    Zr99    Zr   0.66343   0.42998   0.51118   1.000
    O100    O    0.55373   0.47164   0.53360   1.000
    Zr101   Zr   0.10381   0.29678   0.65307   1.000
    O102    O    0.15134   0.31424   0.69580   1.000
    Zr103   Zr   0.10918   0.97722   0.65386   1.000
    O104    O    0.15845   0.86920   0.69355   1.000
    Zr105   Zr   0.96389   0.43312   0.20420   1.000
    O106    O    0.98876   0.47588   0.09449   1.000
    Zr107   Zr   0.96514   0.97698   0.65945   1.000
    O108    O    0.99230   0.86592   0.70100   1.000
    Zr109   Zr   0.11053   0.43343   0.51192   1.000
    O110    O    0.15546   0.47497   0.53414   1.000
    Zr111   Zr   0.10795   0.43092   0.19723   1.000
    O112    O    0.15138   0.47452   0.09101   1.000
    Zr113   Zr   0.66096   0.29125   0.65003   1.000
    O114    O    0.55456   0.30749   0.68913   1.000
    Zr115   Zr   0.06591   0.52798   0.60283   1.000
    O116    O    0.03888   0.48141   0.57840   1.000
    Zr117   Zr   0.19838   0.38290   0.05780   1.000
    O118    O    0.15537   0.35682   0.15994   1.000
    Zr119   Zr   0.51823   0.37772   0.74472   1.000
    O120    O    0.61880   0.35419   0.69865   1.000
    Zr121   Zr   0.06723   0.83484   0.61529   1.000
    O122    O    0.03510   0.93501   0.58620   1.000
    Zr123   Zr   0.52029   0.38124   0.60126   1.000
    O124    O    0.62144   0.35676   0.57590   1.000
    Zr125   Zr   0.06028   0.52779   0.05745   1.000
    O126    O    0.03646   0.47833   0.15955   1.000
    Zr127   Zr   0.06713   0.83334   0.75242   1.000
    O128    O    0.04019   0.93241   0.70238   1.000
    Zr129   Zr   0.20498   0.38476   0.60680   1.000
    O130    O    0.15724   0.35888   0.58041   1.000
    Zr131   Zr   0.20776   0.83765   0.60420   1.000
    O132    O    0.15599   0.93775   0.57908   1.000
    Zr133   Zr   0.05611   0.38421   0.06182   1.000
    O134    O    0.03241   0.35880   0.16294   1.000
    Zr135   Zr   0.06452   0.38812   0.74256   1.000
    O136    O    0.03296   0.36336   0.69791   1.000
    Zr137   Zr   0.51904   0.51973   0.60479   1.000
    O138    O    0.61951   0.47295   0.58110   1.000
    O139    O    0.04477   0.37018   0.25095   1.000
    O140    O    0.04637   0.37337   0.58743   1.000
    O141    O    0.71074   0.36478   0.58929   1.000
    O142    O    0.04561   0.02566   0.59429   1.000
    O143    O    0.11774   0.43972   0.65754   1.000
    O144    O    0.11434   0.43555   0.04234   1.000
    O145    O    0.50097   0.43257   0.65788   1.000
    O146    O    0.12093   0.81618   0.66225   1.000
    C147    C    0.14175   0.29198   0.31101   1.000
    C148    C    0.14680   0.25617   0.37832   1.000
    C149    C    0.96798   0.47166   0.50775   1.000
    C150    C    0.93282   0.47462   0.47282   1.000
    C151    C    0.76828   0.28643   0.68864   1.000
    C152    C    0.83538   0.25154   0.69281   1.000
    C153    C    0.96810   0.08666   0.51373   1.000
    C154    C    0.93169   0.15208   0.47586   1.000
    C155    C    0.77353   0.45916   0.51172   1.000
    C156    C    0.83851   0.46883   0.47517   1.000
    C157    C    0.96862   0.29190   0.67952   1.000
    C158    C    0.93271   0.25396   0.68800   1.000
    C159    C    0.13928   0.09184   0.51290   1.000
    C160    C    0.14528   0.15903   0.47649   1.000
    C161    C    0.96844   0.28679   0.31282   1.000
    C162    C    0.93226   0.24875   0.37852   1.000
    C163    C    0.96788   0.08677   0.69095   1.000
    C164    C    0.93254   0.15478   0.69340   1.000
    C165    C    0.14345   0.29163   0.51010   1.000
    C166    C    0.14775   0.25552   0.47478   1.000
    C167    C    0.96859   0.46919   0.30949   1.000
    C168    C    0.93388   0.47386   0.37646   1.000
    C169    C    0.76741   0.28517   0.51020   1.000
    C170    C    0.83416   0.24834   0.47468   1.000
    C171    C    0.03368   0.52367   0.74820   1.000
    C172    C    0.03265   0.55778   0.78289   1.000
    C173    C    0.20164   0.35893   0.94499   1.000
    C174    C    0.23806   0.35707   0.87655   1.000
    C175    C    0.40592   0.51836   0.74438   1.000
    C176    C    0.33824   0.55377   0.77931   1.000
    C177    C    0.20801   0.72342   0.57992   1.000
    C178    C    0.24290   0.65550   0.57693   1.000
    C179    C    0.40503   0.35537   0.74546   1.000
    C180    C    0.33625   0.35527   0.78039   1.000
    C181    C    0.20540   0.51859   0.94406   1.000
    C182    C    0.24147   0.55332   0.87601   1.000
    C183    C    0.04127   0.72059   0.74541   1.000
    C184    C    0.03688   0.65338   0.78039   1.000
    C185    C    0.20531   0.52540   0.57943   1.000
    C186    C    0.24117   0.55945   0.57722   1.000
    C187    C    0.20781   0.72077   0.74501   1.000
    C188    C    0.24245   0.65159   0.77941   1.000
    C189    C    0.03514   0.52311   0.94695   1.000
    C190    C    0.03368   0.55739   0.87871   1.000
    C191    C    0.20397   0.36286   0.74286   1.000
    C192    C    0.23886   0.35937   0.77852   1.000
    C193    C    0.40707   0.52151   0.57756   1.000
    C194    C    0.33906   0.55770   0.57570   1.000
    C195    C    0.14800   0.28795   0.40992   1.000
    H196    H    0.14784   0.33872   0.38440   1.000
    C197    C    0.96521   0.47534   0.40795   1.000
    H198    H    0.01572   0.47502   0.38308   1.000
    C199    C    0.86785   0.18637   0.69433   1.000
    H200    H    0.84340   0.16045   0.69468   1.000
    C201    C    0.86651   0.18377   0.50760   1.000
    H202    H    0.84195   0.15829   0.55867   1.000
    C203    C    0.86935   0.47143   0.50652   1.000
    H204    H    0.84466   0.46921   0.55774   1.000
    C205    C    0.86770   0.28521   0.69006   1.000
    H206    H    0.84300   0.33653   0.68791   1.000
    C207    C    0.14553   0.19176   0.41173   1.000
    H208    H    0.14328   0.16696   0.38799   1.000
    C209    C    0.96451   0.18408   0.41105   1.000
    H210    H    0.01577   0.15933   0.38691   1.000
    C211    C    0.96508   0.18865   0.68997   1.000
    H212    H    0.01620   0.16459   0.68741   1.000
    C213    C    0.14636   0.19102   0.50789   1.000
    H214    H    0.14431   0.16620   0.55907   1.000
    C215    C    0.87053   0.47066   0.41016   1.000
    H216    H    0.84654   0.46771   0.38622   1.000
    C217    C    0.86725   0.28087   0.41021   1.000
    H218    H    0.84324   0.33214   0.38485   1.000
    C219    C    0.03184   0.52546   0.84780   1.000
    H220    H    0.03053   0.47520   0.87415   1.000
    C221    C    0.20586   0.35948   0.84314   1.000
    H222    H    0.15476   0.36160   0.86747   1.000
    C223    C    0.30681   0.61907   0.74698   1.000
    H224    H    0.33249   0.64439   0.69634   1.000
    C225    C    0.30768   0.62239   0.57570   1.000
    H226    H    0.33370   0.64640   0.57580   1.000
    C227    C    0.30335   0.35475   0.84520   1.000
    H228    H    0.32849   0.35302   0.87120   1.000
    C229    C    0.30574   0.52078   0.84378   1.000
    H230    H    0.33025   0.46931   0.86836   1.000
    C231    C    0.03513   0.62183   0.74918   1.000
    H232    H    0.03666   0.64674   0.69816   1.000
    C233    C    0.20966   0.62386   0.57791   1.000
    H234    H    0.15863   0.64936   0.58002   1.000
    C235    C    0.20975   0.61862   0.84378   1.000
    H236    H    0.15894   0.64346   0.86890   1.000
    C237    C    0.03632   0.62108   0.84510   1.000
    H238    H    0.03828   0.64557   0.86934   1.000
    C239    C    0.30394   0.35749   0.74722   1.000
    H240    H    0.32975   0.35822   0.69644   1.000
    C241    C    0.30591   0.52625   0.57639   1.000
    H242    H    0.33051   0.47540   0.57717   1.000
    S243    S    0.08129   0.89390   0.45662   1.000
    S244    S    0.59037   0.59026   0.43847   1.000
    S245    S    0.11372   0.18487   0.80796   1.000
    S246    S    0.28016   0.40807   0.11589   1.000
    H247    H    0.95356   0.50447   0.72230   1.000
    H248    H    0.18285   0.50132   0.49803   1.000
    H249    H    0.03249   0.35594   0.57153   1.000
    H250    H    0.16393   0.27965   0.73505   1.000
    H251    H    0.95853   0.84545   0.73152   1.000
    H252    H    0.18797   0.85456   0.71617   1.000
    H253    H    0.17388   0.85207   0.50235   1.000
    H254    H    0.03018   0.07350   0.57683   1.000
    H255    H    0.75836   0.34971   0.57231   1.000
    H256    H    0.53699   0.50267   0.49666   1.000
    H257    H    0.02963   0.35461   0.29874   1.000
    H258    H    0.95150   0.50314   0.07894   1.000
    H259    H    0.54236   0.26778   0.71518   1.000
    H260    H    0.53068   0.49600   0.72191   1.000
    H261    H    0.17024   0.27178   0.08321   1.000
    H262    H    0.18105   0.49860   0.07325   1.000
    H263    H    0.85638   0.95673   0.70753   1.000
    H264    H    0.09003   0.28072   0.03302   1.000
    H265    H    0.85075   0.48703   0.73020   1.000
    H266    H    0.49742   0.27457   0.63031   1.000
    O267    O    0.05438   0.90160   0.41389   1.000
    O268    O    0.15940   0.84821   0.43626   1.000
    H269    H    0.16161   0.80609   0.44019   1.000
    O270    O    0.18620   0.15387   0.77636   1.000
    O271    O    0.12045   0.24577   0.81910   1.000
    H272    H    0.20091   0.18147   0.70424   1.000
    O273    O    0.34141   0.38421   0.12442   1.000
    O274    O    0.26628   0.48566   0.06751   1.000
    H275    H    0.29839   0.48610   0.02345   1.000
    O276    O    0.56664   0.56145   0.41389   1.000
    O277    O    0.59722   0.65265   0.39118   1.000
    H278    H    0.60346   0.51410   0.41105   1.000
    H279    H    0.63018   0.52618   0.68908   1.000
    H280    H    0.55595   0.62161   0.56441   1.000
    H281    H    0.58603   0.56604   0.62457   1.000
    H282    H    0.50091   0.40069   0.84800   1.000
    H283    H    0.59202   0.39551   0.78932   1.000
    H284    H    0.66985   0.37869   0.77421   1.000
    H285    H    0.58942   0.23995   0.78554   1.000
    H286    H    0.56228   0.27518   0.83838   1.000
    H287    H    0.68366   0.17264   0.74202   1.000
    H288    H    0.68208   0.43239   0.39176   1.000
    H289    H    0.08247   0.54054   0.41325   1.000
    H290    H    0.09133   0.57181   0.46727   1.000
    H291    H    0.03609   0.62957   0.50108   1.000
    H292    H    0.93233   0.57812   0.61284   1.000
    H293    H    0.95838   0.62978   0.63183   1.000
    H294    H    0.89408   0.56329   0.58821   1.000
    H295    H    0.93211   0.90575   0.79727   1.000
    H296    H    0.97678   0.84430   0.86110   1.000
    H297    H    0.89736   0.98605   0.78264   1.000
    H298    H    0.11001   0.81908   0.83902   1.000
    H299    H    0.06663   0.99133   0.77067   1.000
    H300    H    0.08896   0.90993   0.78809   1.000
    H301    H    0.08827   0.51947   0.24217   1.000
    H302    H    0.16509   0.49681   0.20199   1.000
    H303    H    0.09959   0.62162   0.03135   1.000
    H304    H    0.92706   0.57355   0.12884   1.000
    H305    H    0.96496   0.63052   0.08399   1.000
    H306    H    0.87683   0.54620   0.22343   1.000
    H307    H    0.95643   0.35292   0.09572   1.000
    H308    H    0.85880   0.46582   0.18624   1.000
    H309    H    0.92226   0.40433   0.13801   1.000
    H310    H    0.29454   0.27438   0.10504   1.000
    H311    H    0.19835   0.17844   0.22549   1.000
    H312    H    0.23864   0.24506   0.12977   1.000
    H313    H    0.22384   0.99794   0.59817   1.000
    H314    H    0.24481   0.91708   0.62147   1.000
    H315    H    0.31007   0.86699   0.56216   1.000
    H316    H    0.29618   0.83340   0.47826   1.000
    H317    H    0.24378   0.91116   0.46786   1.000
    H318    H    0.19973   0.95666   0.40427   1.000
    H319    H    0.30300   0.29397   0.56422   1.000
    H320    H    0.21228   0.18281   0.63212   1.000
    H321    H    0.25718   0.25018   0.62358   1.000
    H322    H    0.21578   0.45815   0.40982   1.000
    H323    H    0.30673   0.41168   0.49553   1.000
    H324    H    0.24772   0.40204   0.46747   1.000
